


                               __________________________________________
                              |                                          |
                              |  NUMERICAL ELECTROMAGNETICS CODE (nec2c) |
                              |   Translated to 'C' in Double Precision  |
                              |__________________________________________|



                               ---------------- COMMENTS ----------------
                              
                               Hello nec
                              
                              



                               -------- STRUCTURE SPECIFICATION --------
                                     COORDINATES MUST BE INPUT IN
                                     METERS OR BE SCALED TO METERS
                                     BEFORE STRUCTURE INPUT IS ENDED

  WIRE                                                                                 SEG FIRST  LAST  TAG
   No:        X1         Y1         Z1         X2         Y2         Z2       RADIUS   No:   SEG   SEG  No:
     1      0.0000    -0.5000     0.5000     0.0000    -0.5000     1.5000     0.0050    11     1    11    1
     2      0.0000     0.0000     0.5000     0.0000     0.0000     1.5000     0.0050    11    12    22    1
     3      0.0000     0.5000     0.5000     0.0000     0.5000     1.5000     0.0050    11    23    33    1

     GROUND PLANE SPECIFIED.
     WHERE WIRE ENDS TOUCH GROUND, CURRENT WILL BE INTERPOLATED TO IMAGE IN GROUND PLANE.


     TOTAL SEGMENTS USED: 33   SEGMENTS IN A SYMMETRIC CELL: 33   SYMMETRY FLAG: 0


                               ---------- SEGMENTATION DATA ----------
                                        COORDINATES IN METERS
                            I+ AND I- INDICATE THE SEGMENTS BEFORE AND AFTER I

   SEG    COORDINATES OF SEGM CENTER     SEGM    ORIENTATION ANGLES    WIRE    CONNECTION DATA   TAG
   No:       X         Y         Z      LENGTH     ALPHA      BETA    RADIUS    I-     I    I+   No:
     1    0.0000   -0.5000    0.5455    0.0909   90.0000    0.0000    0.0050     0     1     2     1
     2    0.0000   -0.5000    0.6364    0.0909   90.0000    0.0000    0.0050     1     2     3     1
     3    0.0000   -0.5000    0.7273    0.0909   90.0000    0.0000    0.0050     2     3     4     1
     4    0.0000   -0.5000    0.8182    0.0909   90.0000    0.0000    0.0050     3     4     5     1
     5    0.0000   -0.5000    0.9091    0.0909   90.0000    0.0000    0.0050     4     5     6     1
     6    0.0000   -0.5000    1.0000    0.0909   90.0000    0.0000    0.0050     5     6     7     1
     7    0.0000   -0.5000    1.0909    0.0909   90.0000    0.0000    0.0050     6     7     8     1
     8    0.0000   -0.5000    1.1818    0.0909   90.0000    0.0000    0.0050     7     8     9     1
     9    0.0000   -0.5000    1.2727    0.0909   90.0000    0.0000    0.0050     8     9    10     1
    10    0.0000   -0.5000    1.3636    0.0909   90.0000    0.0000    0.0050     9    10    11     1
    11    0.0000   -0.5000    1.4545    0.0909   90.0000    0.0000    0.0050    10    11     0     1
    12    0.0000    0.0000    0.5455    0.0909   90.0000    0.0000    0.0050     0    12    13     1
    13    0.0000    0.0000    0.6364    0.0909   90.0000    0.0000    0.0050    12    13    14     1
    14    0.0000    0.0000    0.7273    0.0909   90.0000    0.0000    0.0050    13    14    15     1
    15    0.0000    0.0000    0.8182    0.0909   90.0000    0.0000    0.0050    14    15    16     1
    16    0.0000    0.0000    0.9091    0.0909   90.0000    0.0000    0.0050    15    16    17     1
    17    0.0000    0.0000    1.0000    0.0909   90.0000    0.0000    0.0050    16    17    18     1
    18    0.0000    0.0000    1.0909    0.0909   90.0000    0.0000    0.0050    17    18    19     1
    19    0.0000    0.0000    1.1818    0.0909   90.0000    0.0000    0.0050    18    19    20     1
    20    0.0000    0.0000    1.2727    0.0909   90.0000    0.0000    0.0050    19    20    21     1
    21    0.0000    0.0000    1.3636    0.0909   90.0000    0.0000    0.0050    20    21    22     1
    22    0.0000    0.0000    1.4545    0.0909   90.0000    0.0000    0.0050    21    22     0     1
    23    0.0000    0.5000    0.5455    0.0909   90.0000    0.0000    0.0050     0    23    24     1
    24    0.0000    0.5000    0.6364    0.0909   90.0000    0.0000    0.0050    23    24    25     1
    25    0.0000    0.5000    0.7273    0.0909   90.0000    0.0000    0.0050    24    25    26     1
    26    0.0000    0.5000    0.8182    0.0909   90.0000    0.0000    0.0050    25    26    27     1
    27    0.0000    0.5000    0.9091    0.0909   90.0000    0.0000    0.0050    26    27    28     1
    28    0.0000    0.5000    1.0000    0.0909   90.0000    0.0000    0.0050    27    28    29     1
    29    0.0000    0.5000    1.0909    0.0909   90.0000    0.0000    0.0050    28    29    30     1
    30    0.0000    0.5000    1.1818    0.0909   90.0000    0.0000    0.0050    29    30    31     1
    31    0.0000    0.5000    1.2727    0.0909   90.0000    0.0000    0.0050    30    31    32     1
    32    0.0000    0.5000    1.3636    0.0909   90.0000    0.0000    0.0050    31    32    33     1
    33    0.0000    0.5000    1.4545    0.0909   90.0000    0.0000    0.0050    32    33     0     1



  DATA CARD No:   1 GN   2     0     0     0  4.00000E+00  3.00000E-03  0.00000E+00  0.00000E+00  0.00000E+00  0.00000E+00
  DATA CARD No:   2 FR   0     1     0     0  3.00000E+02  5.00000E+00  0.00000E+00  0.00000E+00  0.00000E+00  0.00000E+00
  DATA CARD No:   3 EX   0     1     1     0  1.00000E+00  0.00000E+00  0.00000E+00  0.00000E+00  0.00000E+00  0.00000E+00
  DATA CARD No:   4 EX   0     1     1     0  1.00000E+00  0.00000E+00  0.00000E+00  0.00000E+00  0.00000E+00  0.00000E+00
  DATA CARD No:   5 EX   0     1     1     0  1.00000E+00  0.00000E+00  0.00000E+00  0.00000E+00  0.00000E+00  0.00000E+00
  DATA CARD No:   6 RP   0     1   361  1000  9.00000E+01  0.00000E+00  1.00000E+00  1.00000E+00  0.00000E+00  0.00000E+00


                               --------- FREQUENCY --------
                                FREQUENCY : 3.0000E+02 MHz
                                WAVELENGTH: 9.9933E-01 Mtr

                        APPROXIMATE INTEGRATION EMPLOYED FOR SEGMENTS 
                        THAT ARE MORE THAN 1.000 WAVELENGTHS APART


                          ------ STRUCTURE IMPEDANCE LOADING ------
                                 THIS STRUCTURE IS NOT LOADED


                            -------- ANTENNA ENVIRONMENT --------
                            FINITE GROUND - SOMMERFELD SOLUTION
                            RELATIVE DIELECTRIC CONST: 4.000
                            CONDUCTIVITY:  3.000E-03 MHOS/METER
                            COMPLEX DIELECTRIC CONSTANT:  4.0000E+00-1.7976E-01j


                             ---------- MATRIX TIMING ----------
                               FILL: 0 msec  FACTOR: 0 msec


                        --------- ANTENNA INPUT PARAMETERS ---------
  TAG   SEG       VOLTAGE (VOLTS)         CURRENT (AMPS)         IMPEDANCE (OHMS)        ADMITTANCE (MHOS)     POWER
  No:   No:     REAL      IMAGINARY     REAL      IMAGINARY     REAL      IMAGINARY    REAL       IMAGINARY   (WATTS)
    1     1  1.0000E+00  0.0000E+00  9.3308E-04  9.0631E-04  5.5145E+02 -5.3563E+02  9.3308E-04  9.0631E-04  4.6654E-04
    1     1  1.0000E+00  0.0000E+00  9.3308E-04  9.0631E-04  5.5145E+02 -5.3563E+02  9.3308E-04  9.0631E-04  4.6654E-04
    1     1  1.0000E+00  0.0000E+00  9.3308E-04  9.0631E-04  5.5145E+02 -5.3563E+02  9.3308E-04  9.0631E-04  4.6654E-04


                           -------- CURRENTS AND LOCATION --------
                                  DISTANCES IN WAVELENGTHS

   SEG  TAG    COORDINATES OF SEGM CENTER     SEGM    ------------- CURRENT (AMPS) -------------
   No:  No:       X         Y         Z      LENGTH     REAL      IMAGINARY    MAGN        PHASE
     1    1    0.0000   -0.5003    0.5458   0.09097  9.3308E-04  9.0631E-04  1.3008E-03   44.166
     2    1    0.0000   -0.5003    0.6368   0.09097  2.1066E-03 -9.8454E-05  2.1089E-03   -2.676
     3    1    0.0000   -0.5003    0.7278   0.09097  2.5839E-03 -1.1252E-03  2.8183E-03  -23.530
     4    1    0.0000   -0.5003    0.8187   0.09097  2.3116E-03 -1.5884E-03  2.8047E-03  -34.495
     5    1    0.0000   -0.5003    0.9097   0.09097  1.3816E-03 -1.4569E-03  2.0078E-03  -46.519
     6    1    0.0000   -0.5003    1.0007   0.09097  7.0509E-05 -8.2482E-04  8.2783E-04  -85.114
     7    1    0.0000   -0.5003    1.0916   0.09097 -1.2378E-03  6.6299E-05  1.2395E-03  176.934
     8    1    0.0000   -0.5003    1.1826   0.09097 -2.1632E-03  8.9914E-04  2.3426E-03  157.430
     9    1    0.0000   -0.5003    1.2736   0.09097 -2.4398E-03  1.3781E-03  2.8021E-03  150.541
    10    1    0.0000   -0.5003    1.3645   0.09097 -1.9883E-03  1.3175E-03  2.3852E-03  146.471
    11    1    0.0000   -0.5003    1.4555   0.09097 -8.7633E-04  6.4905E-04  1.0905E-03  143.475
    12    1    0.0000    0.0000    0.5458   0.09097  3.2522E-04  2.0122E-04  3.8244E-04   31.745
    13    1    0.0000    0.0000    0.6368   0.09097  7.2868E-04  4.5636E-04  8.5978E-04   32.058
    14    1    0.0000    0.0000    0.7278   0.09097  8.8855E-04  5.6151E-04  1.0511E-03   32.290
    15    1    0.0000    0.0000    0.8187   0.09097  7.9143E-04  4.9988E-04  9.3608E-04   32.277
    16    1    0.0000    0.0000    0.9097   0.09097  4.7114E-04  2.8670E-04  5.5151E-04   31.321
    17    1    0.0000    0.0000    1.0007   0.09097  2.1905E-05 -1.9120E-05  2.9076E-05  -41.116
    18    1    0.0000    0.0000    1.0916   0.09097 -4.2687E-04 -3.2988E-04  5.3948E-04 -142.304
    19    1    0.0000    0.0000    1.1826   0.09097 -7.4686E-04 -5.5423E-04  9.3004E-04 -143.422
    20    1    0.0000    0.0000    1.2736   0.09097 -8.4654E-04 -6.2393E-04  1.0516E-03 -143.609
    21    1    0.0000    0.0000    1.3645   0.09097 -6.9528E-04 -5.1317E-04  8.6415E-04 -143.570
    22    1    0.0000    0.0000    1.4555   0.09097 -3.0972E-04 -2.2979E-04  3.8565E-04 -143.427
    23    1    0.0000    0.5003    0.5458   0.09097 -7.4139E-05 -2.2970E-05  7.7616E-05 -162.786
    24    1    0.0000    0.5003    0.6368   0.09097 -1.6982E-04 -4.8984E-05  1.7674E-04 -163.910
    25    1    0.0000    0.5003    0.7278   0.09097 -2.1119E-04 -5.7234E-05  2.1880E-04 -164.836
    26    1    0.0000    0.5003    0.8187   0.09097 -1.9215E-04 -4.8693E-05  1.9822E-04 -165.780
    27    1    0.0000    0.5003    0.9097   0.09097 -1.1947E-04 -2.6493E-05  1.2237E-04 -167.496
    28    1    0.0000    0.5003    1.0007   0.09097 -1.5833E-05  3.0107E-06  1.6116E-05  169.233
    29    1    0.0000    0.5003    1.0916   0.09097  8.6996E-05  3.1749E-05  9.2608E-05   20.049
    30    1    0.0000    0.5003    1.1826   0.09097  1.5825E-04  5.2019E-05  1.6658E-04   18.196
    31    1    0.0000    0.5003    1.2736   0.09097  1.7783E-04  5.8379E-05  1.8717E-04   18.174
    32    1    0.0000    0.5003    1.3645   0.09097  1.4215E-04  4.8697E-05  1.5026E-04   18.911
    33    1    0.0000    0.5003    1.4555   0.09097  6.0762E-05  2.2542E-05  6.4809E-05   20.354


                               ---------- POWER BUDGET ---------
                               INPUT POWER   =  1.3996E-03 Watts
                               RADIATED POWER=  1.3996E-03 Watts
                               STRUCTURE LOSS=  0.0000E+00 Watts
                               NETWORK LOSS  =  0.0000E+00 Watts
                               EFFICIENCY    =  100.00 Percent


                             ---------- RADIATION PATTERNS -----------

 ---- ANGLES -----     ----- POWER GAINS -----       ---- POLARIZATION ----   ---- E(THETA) ----    ----- E(PHI) ------
  THETA      PHI       VERTC    HORIZ    TOTAL       AXIAL      TILT  SENSE   MAGNITUDE    PHASE    MAGNITUDE     PHASE
 DEGREES   DEGREES        DB       DB       DB       RATIO   DEGREES            VOLTS/M   DEGREES     VOLTS/M   DEGREES
   90.00      0.00   -999.99  -999.99  -999.99      0.0000      0.00         5.8349E-12    178.44  0.0000E+00     -0.00
   90.00      1.00   -999.99  -999.99  -999.99      0.0000      0.00         5.7673E-12    175.92  0.0000E+00     -0.00
   90.00      2.00   -999.99  -999.99  -999.99      0.0000      0.00         5.6982E-12    173.40  0.0000E+00     -0.00
   90.00      3.00   -999.99  -999.99  -999.99      0.0000      0.00         5.6276E-12    170.86  0.0000E+00     -0.00
   90.00      4.00   -999.99  -999.99  -999.99      0.0000      0.00         5.5553E-12    168.32  0.0000E+00     -0.00
   90.00      5.00   -999.99  -999.99  -999.99      0.0000      0.00         5.4812E-12    165.78  0.0000E+00     -0.00
   90.00      6.00   -999.99  -999.99  -999.99      0.0000      0.00         5.4055E-12    163.23  0.0000E+00     -0.00
   90.00      7.00   -999.99  -999.99  -999.99      0.0000      0.00         5.3278E-12    160.68  0.0000E+00     -0.00
   90.00      8.00   -999.99  -999.99  -999.99      0.0000      0.00         5.2483E-12    158.12  0.0000E+00     -0.00
   90.00      9.00   -999.99  -999.99  -999.99      0.0000      0.00         5.1668E-12    155.55  0.0000E+00     -0.00
   90.00     10.00   -999.99  -999.99  -999.99      0.0000      0.00         5.0832E-12    152.98  0.0000E+00     -0.00
   90.00     11.00   -999.99  -999.99  -999.99      0.0000      0.00         4.9975E-12    150.40  0.0000E+00     -0.00
   90.00     12.00   -999.99  -999.99  -999.99      0.0000      0.00         4.9097E-12    147.82  0.0000E+00     -0.00
   90.00     13.00   -999.99  -999.99  -999.99      0.0000      0.00         4.8198E-12    145.22  0.0000E+00     -0.00
   90.00     14.00   -999.99  -999.99  -999.99      0.0000      0.00         4.7277E-12    142.62  0.0000E+00     -0.00
   90.00     15.00   -999.99  -999.99  -999.99      0.0000      0.00         4.6335E-12    140.00  0.0000E+00     -0.00
   90.00     16.00   -999.99  -999.99  -999.99      0.0000      0.00         4.5371E-12    137.36  0.0000E+00     -0.00
   90.00     17.00   -999.99  -999.99  -999.99      0.0000      0.00         4.4388E-12    134.70  0.0000E+00     -0.00
   90.00     18.00   -999.99  -999.99  -999.99      0.0000      0.00         4.3385E-12    132.02  0.0000E+00     -0.00
   90.00     19.00   -999.99  -999.99  -999.99      0.0000      0.00         4.2364E-12    129.31  0.0000E+00     -0.00
   90.00     20.00   -999.99  -999.99  -999.99      0.0000      0.00         4.1327E-12    126.57  0.0000E+00     -0.00
   90.00     21.00   -999.99  -999.99  -999.99      0.0000      0.00         4.0275E-12    123.79  0.0000E+00     -0.00
   90.00     22.00   -999.99  -999.99  -999.99      0.0000      0.00         3.9211E-12    120.96  0.0000E+00     -0.00
   90.00     23.00   -999.99  -999.99  -999.99      0.0000      0.00         3.8136E-12    118.09  0.0000E+00     -0.00
   90.00     24.00   -999.99  -999.99  -999.99      0.0000      0.00         3.7055E-12    115.15  0.0000E+00     -0.00
   90.00     25.00   -999.99  -999.99  -999.99      0.0000      0.00         3.5970E-12    112.15  0.0000E+00     -0.00
   90.00     26.00   -999.99  -999.99  -999.99      0.0000      0.00         3.4886E-12    109.08  0.0000E+00     -0.00
   90.00     27.00   -999.99  -999.99  -999.99      0.0000      0.00         3.3806E-12    105.92  0.0000E+00     -0.00
   90.00     28.00   -999.99  -999.99  -999.99      0.0000      0.00         3.2735E-12    102.67  0.0000E+00     -0.00
   90.00     29.00   -999.99  -999.99  -999.99      0.0000      0.00         3.1678E-12     99.32  0.0000E+00     -0.00
   90.00     30.00   -999.99  -999.99  -999.99      0.0000      0.00         3.0641E-12     95.85  0.0000E+00     -0.00
   90.00     31.00   -999.99  -999.99  -999.99      0.0000      0.00         2.9629E-12     92.26  0.0000E+00     -0.00
   90.00     32.00   -999.99  -999.99  -999.99      0.0000      0.00         2.8650E-12     88.53  0.0000E+00     -0.00
   90.00     33.00   -999.99  -999.99  -999.99      0.0000      0.00         2.7710E-12     84.66  0.0000E+00     -0.00
   90.00     34.00   -999.99  -999.99  -999.99      0.0000      0.00         2.6817E-12     80.64  0.0000E+00     -0.00
   90.00     35.00   -999.99  -999.99  -999.99      0.0000      0.00         2.5977E-12     76.47  0.0000E+00     -0.00
   90.00     36.00   -999.99  -999.99  -999.99      0.0000      0.00         2.5200E-12     72.14  0.0000E+00     -0.00
   90.00     37.00   -999.99  -999.99  -999.99      0.0000      0.00         2.4491E-12     67.65  0.0000E+00     -0.00
   90.00     38.00   -999.99  -999.99  -999.99      0.0000      0.00         2.3860E-12     63.02  0.0000E+00     -0.00
   90.00     39.00   -999.99  -999.99  -999.99      0.0000      0.00         2.3312E-12     58.25  0.0000E+00     -0.00
   90.00     40.00   -999.99  -999.99  -999.99      0.0000      0.00         2.2855E-12     53.36  0.0000E+00     -0.00
   90.00     41.00   -999.99  -999.99  -999.99      0.0000      0.00         2.2492E-12     48.40  0.0000E+00     -0.00
   90.00     42.00   -999.99  -999.99  -999.99      0.0000      0.00         2.2228E-12     43.37  0.0000E+00     -0.00
   90.00     43.00   -999.99  -999.99  -999.99      0.0000      0.00         2.2063E-12     38.33  0.0000E+00     -0.00
   90.00     44.00   -999.99  -999.99  -999.99      0.0000      0.00         2.1999E-12     33.31  0.0000E+00     -0.00
   90.00     45.00   -999.99  -999.99  -999.99      0.0000      0.00         2.2033E-12     28.35  0.0000E+00     -0.00
   90.00     46.00   -999.99  -999.99  -999.99      0.0000      0.00         2.2161E-12     23.49  0.0000E+00     -0.00
   90.00     47.00   -999.99  -999.99  -999.99      0.0000      0.00         2.2378E-12     18.76  0.0000E+00     -0.00
   90.00     48.00   -999.99  -999.99  -999.99      0.0000      0.00         2.2678E-12     14.19  0.0000E+00     -0.00
   90.00     49.00   -999.99  -999.99  -999.99      0.0000      0.00         2.3052E-12      9.80  0.0000E+00     -0.00
   90.00     50.00   -999.99  -999.99  -999.99      0.0000      0.00         2.3492E-12      5.61  0.0000E+00     -0.00
   90.00     51.00   -999.99  -999.99  -999.99      0.0000      0.00         2.3991E-12      1.62  0.0000E+00     -0.00
   90.00     52.00   -999.99  -999.99  -999.99      0.0000      0.00         2.4539E-12     -2.15  0.0000E+00     -0.00
   90.00     53.00   -999.99  -999.99  -999.99      0.0000      0.00         2.5130E-12     -5.72  0.0000E+00     -0.00
   90.00     54.00   -999.99  -999.99  -999.99      0.0000      0.00         2.5754E-12     -9.08  0.0000E+00     -0.00
   90.00     55.00   -999.99  -999.99  -999.99      0.0000      0.00         2.6405E-12    -12.25  0.0000E+00     -0.00
   90.00     56.00   -999.99  -999.99  -999.99      0.0000      0.00         2.7077E-12    -15.22  0.0000E+00     -0.00
   90.00     57.00   -999.99  -999.99  -999.99      0.0000      0.00         2.7763E-12    -18.02  0.0000E+00     -0.00
   90.00     58.00   -999.99  -999.99  -999.99      0.0000      0.00         2.8458E-12    -20.64  0.0000E+00     -0.00
   90.00     59.00   -999.99  -999.99  -999.99      0.0000      0.00         2.9157E-12    -23.10  0.0000E+00     -0.00
   90.00     60.00   -999.99  -999.99  -999.99      0.0000      0.00         2.9855E-12    -25.42  0.0000E+00     -0.00
   90.00     61.00   -999.99  -999.99  -999.99      0.0000      0.00         3.0550E-12    -27.59  0.0000E+00     -0.00
   90.00     62.00   -999.99  -999.99  -999.99      0.0000      0.00         3.1237E-12    -29.63  0.0000E+00     -0.00
   90.00     63.00   -999.99  -999.99  -999.99      0.0000      0.00         3.1914E-12    -31.54  0.0000E+00     -0.00
   90.00     64.00   -999.99  -999.99  -999.99      0.0000      0.00         3.2578E-12    -33.34  0.0000E+00     -0.00
   90.00     65.00   -999.99  -999.99  -999.99      0.0000      0.00         3.3226E-12    -35.02  0.0000E+00     -0.00
   90.00     66.00   -999.99  -999.99  -999.99      0.0000      0.00         3.3858E-12    -36.61  0.0000E+00     -0.00
   90.00     67.00   -999.99  -999.99  -999.99      0.0000      0.00         3.4470E-12    -38.09  0.0000E+00     -0.00
   90.00     68.00   -999.99  -999.99  -999.99      0.0000      0.00         3.5062E-12    -39.49  0.0000E+00     -0.00
   90.00     69.00   -999.99  -999.99  -999.99      0.0000      0.00         3.5633E-12    -40.80  0.0000E+00     -0.00
   90.00     70.00   -999.99  -999.99  -999.99      0.0000      0.00         3.6180E-12    -42.02  0.0000E+00     -0.00
   90.00     71.00   -999.99  -999.99  -999.99      0.0000      0.00         3.6705E-12    -43.16  0.0000E+00     -0.00
   90.00     72.00   -999.99  -999.99  -999.99      0.0000      0.00         3.7204E-12    -44.23  0.0000E+00     -0.00
   90.00     73.00   -999.99  -999.99  -999.99      0.0000      0.00         3.7679E-12    -45.23  0.0000E+00     -0.00
   90.00     74.00   -999.99  -999.99  -999.99      0.0000      0.00         3.8128E-12    -46.16  0.0000E+00     -0.00
   90.00     75.00   -999.99  -999.99  -999.99      0.0000      0.00         3.8551E-12    -47.02  0.0000E+00     -0.00
   90.00     76.00   -999.99  -999.99  -999.99      0.0000      0.00         3.8948E-12    -47.81  0.0000E+00     -0.00
   90.00     77.00   -999.99  -999.99  -999.99      0.0000      0.00         3.9318E-12    -48.54  0.0000E+00     -0.00
   90.00     78.00   -999.99  -999.99  -999.99      0.0000      0.00         3.9661E-12    -49.22  0.0000E+00     -0.00
   90.00     79.00   -999.99  -999.99  -999.99      0.0000      0.00         3.9977E-12    -49.83  0.0000E+00     -0.00
   90.00     80.00   -999.99  -999.99  -999.99      0.0000      0.00         4.0266E-12    -50.38  0.0000E+00     -0.00
   90.00     81.00   -999.99  -999.99  -999.99      0.0000      0.00         4.0527E-12    -50.88  0.0000E+00     -0.00
   90.00     82.00   -999.99  -999.99  -999.99      0.0000      0.00         4.0761E-12    -51.33  0.0000E+00     -0.00
   90.00     83.00   -999.99  -999.99  -999.99      0.0000      0.00         4.0968E-12    -51.72  0.0000E+00     -0.00
   90.00     84.00   -999.99  -999.99  -999.99      0.0000      0.00         4.1147E-12    -52.05  0.0000E+00     -0.00
   90.00     85.00   -999.99  -999.99  -999.99      0.0000      0.00         4.1298E-12    -52.34  0.0000E+00     -0.00
   90.00     86.00   -999.99  -999.99  -999.99      0.0000      0.00         4.1422E-12    -52.57  0.0000E+00     -0.00
   90.00     87.00   -999.99  -999.99  -999.99      0.0000      0.00         4.1518E-12    -52.75  0.0000E+00     -0.00
   90.00     88.00   -999.99  -999.99  -999.99      0.0000      0.00         4.1587E-12    -52.87  0.0000E+00     -0.00
   90.00     89.00   -999.99  -999.99  -999.99      0.0000      0.00         4.1629E-12    -52.95  0.0000E+00     -0.00
   90.00     90.00   -999.99  -999.99  -999.99      0.0000      0.00         4.1642E-12    -52.97  0.0000E+00    180.00
   90.00     91.00   -999.99  -999.99  -999.99      0.0000      0.00         4.1629E-12    -52.95  0.0000E+00    180.00
   90.00     92.00   -999.99  -999.99  -999.99      0.0000      0.00         4.1587E-12    -52.87  0.0000E+00    180.00
   90.00     93.00   -999.99  -999.99  -999.99      0.0000      0.00         4.1518E-12    -52.75  0.0000E+00    180.00
   90.00     94.00   -999.99  -999.99  -999.99      0.0000      0.00         4.1422E-12    -52.57  0.0000E+00    180.00
   90.00     95.00   -999.99  -999.99  -999.99      0.0000      0.00         4.1298E-12    -52.34  0.0000E+00    180.00
   90.00     96.00   -999.99  -999.99  -999.99      0.0000      0.00         4.1147E-12    -52.05  0.0000E+00    180.00
   90.00     97.00   -999.99  -999.99  -999.99      0.0000      0.00         4.0968E-12    -51.72  0.0000E+00    180.00
   90.00     98.00   -999.99  -999.99  -999.99      0.0000      0.00         4.0761E-12    -51.33  0.0000E+00    180.00
   90.00     99.00   -999.99  -999.99  -999.99      0.0000      0.00         4.0527E-12    -50.88  0.0000E+00    180.00
   90.00    100.00   -999.99  -999.99  -999.99      0.0000      0.00         4.0266E-12    -50.38  0.0000E+00    180.00
   90.00    101.00   -999.99  -999.99  -999.99      0.0000      0.00         3.9977E-12    -49.83  0.0000E+00    180.00
   90.00    102.00   -999.99  -999.99  -999.99      0.0000      0.00         3.9661E-12    -49.22  0.0000E+00    180.00
   90.00    103.00   -999.99  -999.99  -999.99      0.0000      0.00         3.9318E-12    -48.54  0.0000E+00    180.00
   90.00    104.00   -999.99  -999.99  -999.99      0.0000      0.00         3.8948E-12    -47.81  0.0000E+00    180.00
   90.00    105.00   -999.99  -999.99  -999.99      0.0000      0.00         3.8551E-12    -47.02  0.0000E+00    180.00
   90.00    106.00   -999.99  -999.99  -999.99      0.0000      0.00         3.8128E-12    -46.16  0.0000E+00    180.00
   90.00    107.00   -999.99  -999.99  -999.99      0.0000      0.00         3.7679E-12    -45.23  0.0000E+00    180.00
   90.00    108.00   -999.99  -999.99  -999.99      0.0000      0.00         3.7204E-12    -44.23  0.0000E+00    180.00
   90.00    109.00   -999.99  -999.99  -999.99      0.0000      0.00         3.6705E-12    -43.16  0.0000E+00    180.00
   90.00    110.00   -999.99  -999.99  -999.99      0.0000      0.00         3.6180E-12    -42.02  0.0000E+00    180.00
   90.00    111.00   -999.99  -999.99  -999.99      0.0000      0.00         3.5633E-12    -40.80  0.0000E+00    180.00
   90.00    112.00   -999.99  -999.99  -999.99      0.0000      0.00         3.5062E-12    -39.49  0.0000E+00    180.00
   90.00    113.00   -999.99  -999.99  -999.99      0.0000      0.00         3.4470E-12    -38.09  0.0000E+00    180.00
   90.00    114.00   -999.99  -999.99  -999.99      0.0000      0.00         3.3858E-12    -36.61  0.0000E+00    180.00
   90.00    115.00   -999.99  -999.99  -999.99      0.0000      0.00         3.3226E-12    -35.02  0.0000E+00    180.00
   90.00    116.00   -999.99  -999.99  -999.99      0.0000      0.00         3.2578E-12    -33.34  0.0000E+00    180.00
   90.00    117.00   -999.99  -999.99  -999.99      0.0000      0.00         3.1914E-12    -31.54  0.0000E+00    180.00
   90.00    118.00   -999.99  -999.99  -999.99      0.0000      0.00         3.1237E-12    -29.63  0.0000E+00    180.00
   90.00    119.00   -999.99  -999.99  -999.99      0.0000      0.00         3.0550E-12    -27.59  0.0000E+00    180.00
   90.00    120.00   -999.99  -999.99  -999.99      0.0000      0.00         2.9855E-12    -25.42  0.0000E+00    180.00
   90.00    121.00   -999.99  -999.99  -999.99      0.0000      0.00         2.9157E-12    -23.10  0.0000E+00    180.00
   90.00    122.00   -999.99  -999.99  -999.99      0.0000      0.00         2.8458E-12    -20.64  0.0000E+00    180.00
   90.00    123.00   -999.99  -999.99  -999.99      0.0000      0.00         2.7763E-12    -18.02  0.0000E+00    180.00
   90.00    124.00   -999.99  -999.99  -999.99      0.0000      0.00         2.7077E-12    -15.22  0.0000E+00    180.00
   90.00    125.00   -999.99  -999.99  -999.99      0.0000      0.00         2.6405E-12    -12.25  0.0000E+00    180.00
   90.00    126.00   -999.99  -999.99  -999.99      0.0000      0.00         2.5754E-12     -9.08  0.0000E+00    180.00
   90.00    127.00   -999.99  -999.99  -999.99      0.0000      0.00         2.5130E-12     -5.72  0.0000E+00    180.00
   90.00    128.00   -999.99  -999.99  -999.99      0.0000      0.00         2.4539E-12     -2.15  0.0000E+00    180.00
   90.00    129.00   -999.99  -999.99  -999.99      0.0000      0.00         2.3991E-12      1.62  0.0000E+00    180.00
   90.00    130.00   -999.99  -999.99  -999.99      0.0000      0.00         2.3492E-12      5.61  0.0000E+00    180.00
   90.00    131.00   -999.99  -999.99  -999.99      0.0000      0.00         2.3052E-12      9.80  0.0000E+00    180.00
   90.00    132.00   -999.99  -999.99  -999.99      0.0000      0.00         2.2678E-12     14.19  0.0000E+00    180.00
   90.00    133.00   -999.99  -999.99  -999.99      0.0000      0.00         2.2378E-12     18.76  0.0000E+00    180.00
   90.00    134.00   -999.99  -999.99  -999.99      0.0000      0.00         2.2161E-12     23.49  0.0000E+00    180.00
   90.00    135.00   -999.99  -999.99  -999.99      0.0000      0.00         2.2033E-12     28.35  0.0000E+00    180.00
   90.00    136.00   -999.99  -999.99  -999.99      0.0000      0.00         2.1999E-12     33.31  0.0000E+00    180.00
   90.00    137.00   -999.99  -999.99  -999.99      0.0000      0.00         2.2063E-12     38.33  0.0000E+00    180.00
   90.00    138.00   -999.99  -999.99  -999.99      0.0000      0.00         2.2228E-12     43.37  0.0000E+00    180.00
   90.00    139.00   -999.99  -999.99  -999.99      0.0000      0.00         2.2492E-12     48.40  0.0000E+00    180.00
   90.00    140.00   -999.99  -999.99  -999.99      0.0000      0.00         2.2855E-12     53.36  0.0000E+00    180.00
   90.00    141.00   -999.99  -999.99  -999.99      0.0000      0.00         2.3312E-12     58.25  0.0000E+00    180.00
   90.00    142.00   -999.99  -999.99  -999.99      0.0000      0.00         2.3860E-12     63.02  0.0000E+00    180.00
   90.00    143.00   -999.99  -999.99  -999.99      0.0000      0.00         2.4491E-12     67.65  0.0000E+00    180.00
   90.00    144.00   -999.99  -999.99  -999.99      0.0000      0.00         2.5200E-12     72.14  0.0000E+00    180.00
   90.00    145.00   -999.99  -999.99  -999.99      0.0000      0.00         2.5977E-12     76.47  0.0000E+00    180.00
   90.00    146.00   -999.99  -999.99  -999.99      0.0000      0.00         2.6817E-12     80.64  0.0000E+00    180.00
   90.00    147.00   -999.99  -999.99  -999.99      0.0000      0.00         2.7710E-12     84.66  0.0000E+00    180.00
   90.00    148.00   -999.99  -999.99  -999.99      0.0000      0.00         2.8650E-12     88.53  0.0000E+00    180.00
   90.00    149.00   -999.99  -999.99  -999.99      0.0000      0.00         2.9629E-12     92.26  0.0000E+00    180.00
   90.00    150.00   -999.99  -999.99  -999.99      0.0000      0.00         3.0641E-12     95.85  0.0000E+00    180.00
   90.00    151.00   -999.99  -999.99  -999.99      0.0000      0.00         3.1678E-12     99.32  0.0000E+00    180.00
   90.00    152.00   -999.99  -999.99  -999.99      0.0000      0.00         3.2735E-12    102.67  0.0000E+00    180.00
   90.00    153.00   -999.99  -999.99  -999.99      0.0000      0.00         3.3806E-12    105.92  0.0000E+00    180.00
   90.00    154.00   -999.99  -999.99  -999.99      0.0000      0.00         3.4886E-12    109.08  0.0000E+00    180.00
   90.00    155.00   -999.99  -999.99  -999.99      0.0000      0.00         3.5970E-12    112.15  0.0000E+00    180.00
   90.00    156.00   -999.99  -999.99  -999.99      0.0000      0.00         3.7055E-12    115.15  0.0000E+00    180.00
   90.00    157.00   -999.99  -999.99  -999.99      0.0000      0.00         3.8136E-12    118.09  0.0000E+00    180.00
   90.00    158.00   -999.99  -999.99  -999.99      0.0000      0.00         3.9211E-12    120.96  0.0000E+00    180.00
   90.00    159.00   -999.99  -999.99  -999.99      0.0000      0.00         4.0275E-12    123.79  0.0000E+00    180.00
   90.00    160.00   -999.99  -999.99  -999.99      0.0000      0.00         4.1327E-12    126.57  0.0000E+00    180.00
   90.00    161.00   -999.99  -999.99  -999.99      0.0000      0.00         4.2364E-12    129.31  0.0000E+00    180.00
   90.00    162.00   -999.99  -999.99  -999.99      0.0000      0.00         4.3385E-12    132.02  0.0000E+00    180.00
   90.00    163.00   -999.99  -999.99  -999.99      0.0000      0.00         4.4388E-12    134.70  0.0000E+00    180.00
   90.00    164.00   -999.99  -999.99  -999.99      0.0000      0.00         4.5371E-12    137.36  0.0000E+00    180.00
   90.00    165.00   -999.99  -999.99  -999.99      0.0000      0.00         4.6335E-12    140.00  0.0000E+00    180.00
   90.00    166.00   -999.99  -999.99  -999.99      0.0000      0.00         4.7277E-12    142.62  0.0000E+00    180.00
   90.00    167.00   -999.99  -999.99  -999.99      0.0000      0.00         4.8198E-12    145.22  0.0000E+00    180.00
   90.00    168.00   -999.99  -999.99  -999.99      0.0000      0.00         4.9097E-12    147.82  0.0000E+00    180.00
   90.00    169.00   -999.99  -999.99  -999.99      0.0000      0.00         4.9975E-12    150.40  0.0000E+00    180.00
   90.00    170.00   -999.99  -999.99  -999.99      0.0000      0.00         5.0832E-12    152.98  0.0000E+00    180.00
   90.00    171.00   -999.99  -999.99  -999.99      0.0000      0.00         5.1668E-12    155.55  0.0000E+00    180.00
   90.00    172.00   -999.99  -999.99  -999.99      0.0000      0.00         5.2483E-12    158.12  0.0000E+00    180.00
   90.00    173.00   -999.99  -999.99  -999.99      0.0000      0.00         5.3278E-12    160.68  0.0000E+00    180.00
   90.00    174.00   -999.99  -999.99  -999.99      0.0000      0.00         5.4055E-12    163.23  0.0000E+00    180.00
   90.00    175.00   -999.99  -999.99  -999.99      0.0000      0.00         5.4812E-12    165.78  0.0000E+00    180.00
   90.00    176.00   -999.99  -999.99  -999.99      0.0000      0.00         5.5553E-12    168.32  0.0000E+00    180.00
   90.00    177.00   -999.99  -999.99  -999.99      0.0000      0.00         5.6276E-12    170.86  0.0000E+00    180.00
   90.00    178.00   -999.99  -999.99  -999.99      0.0000      0.00         5.6982E-12    173.40  0.0000E+00    180.00
   90.00    179.00   -999.99  -999.99  -999.99      0.0000      0.00         5.7673E-12    175.92  0.0000E+00    180.00
   90.00    180.00   -999.99  -999.99  -999.99      0.0000      0.00         5.8349E-12    178.44  0.0000E+00     -0.00
   90.00    181.00   -999.99  -999.99  -999.99      0.0000      0.00         5.9010E-12   -179.05  0.0000E+00     -0.00
   90.00    182.00   -999.99  -999.99  -999.99      0.0000      0.00         5.9656E-12   -176.56  0.0000E+00     -0.00
   90.00    183.00   -999.99  -999.99  -999.99      0.0000      0.00         6.0288E-12   -174.07  0.0000E+00     -0.00
   90.00    184.00   -999.99  -999.99  -999.99      0.0000      0.00         6.0906E-12   -171.60  0.0000E+00     -0.00
   90.00    185.00   -999.99  -999.99  -999.99      0.0000      0.00         6.1509E-12   -169.15  0.0000E+00     -0.00
   90.00    186.00   -999.99  -999.99  -999.99      0.0000      0.00         6.2097E-12   -166.71  0.0000E+00     -0.00
   90.00    187.00   -999.99  -999.99  -999.99      0.0000      0.00         6.2670E-12   -164.29  0.0000E+00     -0.00
   90.00    188.00   -999.99  -999.99  -999.99      0.0000      0.00         6.3227E-12   -161.89  0.0000E+00     -0.00
   90.00    189.00   -999.99  -999.99  -999.99      0.0000      0.00         6.3767E-12   -159.51  0.0000E+00     -0.00
   90.00    190.00   -999.99  -999.99  -999.99      0.0000      0.00         6.4289E-12   -157.15  0.0000E+00     -0.00
   90.00    191.00   -999.99  -999.99  -999.99      0.0000      0.00         6.4792E-12   -154.82  0.0000E+00     -0.00
   90.00    192.00   -999.99  -999.99  -999.99      0.0000      0.00         6.5275E-12   -152.51  0.0000E+00     -0.00
   90.00    193.00   -999.99  -999.99  -999.99      0.0000      0.00         6.5736E-12   -150.23  0.0000E+00     -0.00
   90.00    194.00   -999.99  -999.99  -999.99      0.0000      0.00         6.6175E-12   -147.97  0.0000E+00     -0.00
   90.00    195.00   -999.99  -999.99  -999.99      0.0000      0.00         6.6589E-12   -145.74  0.0000E+00     -0.00
   90.00    196.00   -999.99  -999.99  -999.99      0.0000      0.00         6.6977E-12   -143.54  0.0000E+00     -0.00
   90.00    197.00   -999.99  -999.99  -999.99      0.0000      0.00         6.7338E-12   -141.37  0.0000E+00     -0.00
   90.00    198.00   -999.99  -999.99  -999.99      0.0000      0.00         6.7670E-12   -139.23  0.0000E+00     -0.00
   90.00    199.00   -999.99  -999.99  -999.99      0.0000      0.00         6.7971E-12   -137.11  0.0000E+00     -0.00
   90.00    200.00   -999.99  -999.99  -999.99      0.0000      0.00         6.8241E-12   -135.03  0.0000E+00     -0.00
   90.00    201.00   -999.99  -999.99  -999.99      0.0000      0.00         6.8478E-12   -132.97  0.0000E+00     -0.00
   90.00    202.00   -999.99  -999.99  -999.99      0.0000      0.00         6.8680E-12   -130.95  0.0000E+00     -0.00
   90.00    203.00   -999.99  -999.99  -999.99      0.0000      0.00         6.8847E-12   -128.95  0.0000E+00     -0.00
   90.00    204.00   -999.99  -999.99  -999.99      0.0000      0.00         6.8977E-12   -126.99  0.0000E+00     -0.00
   90.00    205.00   -999.99  -999.99  -999.99      0.0000      0.00         6.9070E-12   -125.05  0.0000E+00     -0.00
   90.00    206.00   -999.99  -999.99  -999.99      0.0000      0.00         6.9124E-12   -123.15  0.0000E+00     -0.00
   90.00    207.00   -999.99  -999.99  -999.99      0.0000      0.00         6.9140E-12   -121.27  0.0000E+00     -0.00
   90.00    208.00   -999.99  -999.99  -999.99      0.0000      0.00         6.9117E-12   -119.42  0.0000E+00     -0.00
   90.00    209.00   -999.99  -999.99  -999.99      0.0000      0.00         6.9054E-12   -117.60  0.0000E+00     -0.00
   90.00    210.00   -999.99  -999.99  -999.99      0.0000      0.00         6.8951E-12   -115.80  0.0000E+00     -0.00
   90.00    211.00   -999.99  -999.99  -999.99      0.0000      0.00         6.8810E-12   -114.04  0.0000E+00     -0.00
   90.00    212.00   -999.99  -999.99  -999.99      0.0000      0.00         6.8629E-12   -112.29  0.0000E+00     -0.00
   90.00    213.00   -999.99  -999.99  -999.99      0.0000      0.00         6.8409E-12   -110.58  0.0000E+00     -0.00
   90.00    214.00   -999.99  -999.99  -999.99      0.0000      0.00         6.8151E-12   -108.89  0.0000E+00     -0.00
   90.00    215.00   -999.99  -999.99  -999.99      0.0000      0.00         6.7857E-12   -107.22  0.0000E+00     -0.00
   90.00    216.00   -999.99  -999.99  -999.99      0.0000      0.00         6.7525E-12   -105.58  0.0000E+00     -0.00
   90.00    217.00   -999.99  -999.99  -999.99      0.0000      0.00         6.7159E-12   -103.96  0.0000E+00     -0.00
   90.00    218.00   -999.99  -999.99  -999.99      0.0000      0.00         6.6759E-12   -102.37  0.0000E+00     -0.00
   90.00    219.00   -999.99  -999.99  -999.99      0.0000      0.00         6.6326E-12   -100.79  0.0000E+00     -0.00
   90.00    220.00   -999.99  -999.99  -999.99      0.0000      0.00         6.5861E-12    -99.24  0.0000E+00     -0.00
   90.00    221.00   -999.99  -999.99  -999.99      0.0000      0.00         6.5368E-12    -97.71  0.0000E+00     -0.00
   90.00    222.00   -999.99  -999.99  -999.99      0.0000      0.00         6.4846E-12    -96.20  0.0000E+00     -0.00
   90.00    223.00   -999.99  -999.99  -999.99      0.0000      0.00         6.4299E-12    -94.71  0.0000E+00     -0.00
   90.00    224.00   -999.99  -999.99  -999.99      0.0000      0.00         6.3728E-12    -93.25  0.0000E+00     -0.00
   90.00    225.00   -999.99  -999.99  -999.99      0.0000      0.00         6.3134E-12    -91.80  0.0000E+00     -0.00
   90.00    226.00   -999.99  -999.99  -999.99      0.0000      0.00         6.2520E-12    -90.37  0.0000E+00     -0.00
   90.00    227.00   -999.99  -999.99  -999.99      0.0000      0.00         6.1888E-12    -88.96  0.0000E+00     -0.00
   90.00    228.00   -999.99  -999.99  -999.99      0.0000      0.00         6.1240E-12    -87.57  0.0000E+00     -0.00
   90.00    229.00   -999.99  -999.99  -999.99      0.0000      0.00         6.0578E-12    -86.20  0.0000E+00     -0.00
   90.00    230.00   -999.99  -999.99  -999.99      0.0000      0.00         5.9904E-12    -84.85  0.0000E+00     -0.00
   90.00    231.00   -999.99  -999.99  -999.99      0.0000      0.00         5.9220E-12    -83.51  0.0000E+00     -0.00
   90.00    232.00   -999.99  -999.99  -999.99      0.0000      0.00         5.8529E-12    -82.20  0.0000E+00     -0.00
   90.00    233.00   -999.99  -999.99  -999.99      0.0000      0.00         5.7832E-12    -80.91  0.0000E+00     -0.00
   90.00    234.00   -999.99  -999.99  -999.99      0.0000      0.00         5.7131E-12    -79.63  0.0000E+00     -0.00
   90.00    235.00   -999.99  -999.99  -999.99      0.0000      0.00         5.6429E-12    -78.37  0.0000E+00     -0.00
   90.00    236.00   -999.99  -999.99  -999.99      0.0000      0.00         5.5727E-12    -77.13  0.0000E+00     -0.00
   90.00    237.00   -999.99  -999.99  -999.99      0.0000      0.00         5.5027E-12    -75.92  0.0000E+00     -0.00
   90.00    238.00   -999.99  -999.99  -999.99      0.0000      0.00         5.4332E-12    -74.72  0.0000E+00     -0.00
   90.00    239.00   -999.99  -999.99  -999.99      0.0000      0.00         5.3642E-12    -73.54  0.0000E+00     -0.00
   90.00    240.00   -999.99  -999.99  -999.99      0.0000      0.00         5.2960E-12    -72.39  0.0000E+00     -0.00
   90.00    241.00   -999.99  -999.99  -999.99      0.0000      0.00         5.2287E-12    -71.26  0.0000E+00     -0.00
   90.00    242.00   -999.99  -999.99  -999.99      0.0000      0.00         5.1625E-12    -70.15  0.0000E+00     -0.00
   90.00    243.00   -999.99  -999.99  -999.99      0.0000      0.00         5.0975E-12    -69.06  0.0000E+00     -0.00
   90.00    244.00   -999.99  -999.99  -999.99      0.0000      0.00         5.0339E-12    -68.00  0.0000E+00     -0.00
   90.00    245.00   -999.99  -999.99  -999.99      0.0000      0.00         4.9719E-12    -66.96  0.0000E+00     -0.00
   90.00    246.00   -999.99  -999.99  -999.99      0.0000      0.00         4.9114E-12    -65.95  0.0000E+00     -0.00
   90.00    247.00   -999.99  -999.99  -999.99      0.0000      0.00         4.8527E-12    -64.97  0.0000E+00     -0.00
   90.00    248.00   -999.99  -999.99  -999.99      0.0000      0.00         4.7959E-12    -64.02  0.0000E+00     -0.00
   90.00    249.00   -999.99  -999.99  -999.99      0.0000      0.00         4.7411E-12    -63.09  0.0000E+00     -0.00
   90.00    250.00   -999.99  -999.99  -999.99      0.0000      0.00         4.6883E-12    -62.20  0.0000E+00     -0.00
   90.00    251.00   -999.99  -999.99  -999.99      0.0000      0.00         4.6376E-12    -61.34  0.0000E+00     -0.00
   90.00    252.00   -999.99  -999.99  -999.99      0.0000      0.00         4.5892E-12    -60.51  0.0000E+00     -0.00
   90.00    253.00   -999.99  -999.99  -999.99      0.0000      0.00         4.5431E-12    -59.72  0.0000E+00     -0.00
   90.00    254.00   -999.99  -999.99  -999.99      0.0000      0.00         4.4993E-12    -58.96  0.0000E+00     -0.00
   90.00    255.00   -999.99  -999.99  -999.99      0.0000      0.00         4.4580E-12    -58.24  0.0000E+00     -0.00
   90.00    256.00   -999.99  -999.99  -999.99      0.0000      0.00         4.4191E-12    -57.56  0.0000E+00     -0.00
   90.00    257.00   -999.99  -999.99  -999.99      0.0000      0.00         4.3828E-12    -56.92  0.0000E+00     -0.00
   90.00    258.00   -999.99  -999.99  -999.99      0.0000      0.00         4.3490E-12    -56.32  0.0000E+00     -0.00
   90.00    259.00   -999.99  -999.99  -999.99      0.0000      0.00         4.3178E-12    -55.76  0.0000E+00     -0.00
   90.00    260.00   -999.99  -999.99  -999.99      0.0000      0.00         4.2892E-12    -55.25  0.0000E+00     -0.00
   90.00    261.00   -999.99  -999.99  -999.99      0.0000      0.00         4.2633E-12    -54.79  0.0000E+00     -0.00
   90.00    262.00   -999.99  -999.99  -999.99      0.0000      0.00         4.2401E-12    -54.36  0.0000E+00     -0.00
   90.00    263.00   -999.99  -999.99  -999.99      0.0000      0.00         4.2195E-12    -53.99  0.0000E+00     -0.00
   90.00    264.00   -999.99  -999.99  -999.99      0.0000      0.00         4.2017E-12    -53.66  0.0000E+00     -0.00
   90.00    265.00   -999.99  -999.99  -999.99      0.0000      0.00         4.1866E-12    -53.39  0.0000E+00     -0.00
   90.00    266.00   -999.99  -999.99  -999.99      0.0000      0.00         4.1742E-12    -53.16  0.0000E+00     -0.00
   90.00    267.00   -999.99  -999.99  -999.99      0.0000      0.00         4.1646E-12    -52.98  0.0000E+00     -0.00
   90.00    268.00   -999.99  -999.99  -999.99      0.0000      0.00         4.1577E-12    -52.85  0.0000E+00     -0.00
   90.00    269.00   -999.99  -999.99  -999.99      0.0000      0.00         4.1536E-12    -52.78  0.0000E+00     -0.00
   90.00    270.00   -999.99  -999.99  -999.99      0.0000      0.00         4.1522E-12    -52.75  0.0000E+00     -0.00
   90.00    271.00   -999.99  -999.99  -999.99      0.0000      0.00         4.1536E-12    -52.78  0.0000E+00     -0.00
   90.00    272.00   -999.99  -999.99  -999.99      0.0000      0.00         4.1577E-12    -52.85  0.0000E+00     -0.00
   90.00    273.00   -999.99  -999.99  -999.99      0.0000      0.00         4.1646E-12    -52.98  0.0000E+00     -0.00
   90.00    274.00   -999.99  -999.99  -999.99      0.0000      0.00         4.1742E-12    -53.16  0.0000E+00     -0.00
   90.00    275.00   -999.99  -999.99  -999.99      0.0000      0.00         4.1866E-12    -53.39  0.0000E+00     -0.00
   90.00    276.00   -999.99  -999.99  -999.99      0.0000      0.00         4.2017E-12    -53.66  0.0000E+00     -0.00
   90.00    277.00   -999.99  -999.99  -999.99      0.0000      0.00         4.2195E-12    -53.99  0.0000E+00     -0.00
   90.00    278.00   -999.99  -999.99  -999.99      0.0000      0.00         4.2401E-12    -54.36  0.0000E+00     -0.00
   90.00    279.00   -999.99  -999.99  -999.99      0.0000      0.00         4.2633E-12    -54.79  0.0000E+00     -0.00
   90.00    280.00   -999.99  -999.99  -999.99      0.0000      0.00         4.2892E-12    -55.25  0.0000E+00     -0.00
   90.00    281.00   -999.99  -999.99  -999.99      0.0000      0.00         4.3178E-12    -55.76  0.0000E+00     -0.00
   90.00    282.00   -999.99  -999.99  -999.99      0.0000      0.00         4.3490E-12    -56.32  0.0000E+00     -0.00
   90.00    283.00   -999.99  -999.99  -999.99      0.0000      0.00         4.3828E-12    -56.92  0.0000E+00     -0.00
   90.00    284.00   -999.99  -999.99  -999.99      0.0000      0.00         4.4191E-12    -57.56  0.0000E+00     -0.00
   90.00    285.00   -999.99  -999.99  -999.99      0.0000      0.00         4.4580E-12    -58.24  0.0000E+00     -0.00
   90.00    286.00   -999.99  -999.99  -999.99      0.0000      0.00         4.4993E-12    -58.96  0.0000E+00     -0.00
   90.00    287.00   -999.99  -999.99  -999.99      0.0000      0.00         4.5431E-12    -59.72  0.0000E+00     -0.00
   90.00    288.00   -999.99  -999.99  -999.99      0.0000      0.00         4.5892E-12    -60.51  0.0000E+00     -0.00
   90.00    289.00   -999.99  -999.99  -999.99      0.0000      0.00         4.6376E-12    -61.34  0.0000E+00     -0.00
   90.00    290.00   -999.99  -999.99  -999.99      0.0000      0.00         4.6883E-12    -62.20  0.0000E+00     -0.00
   90.00    291.00   -999.99  -999.99  -999.99      0.0000      0.00         4.7411E-12    -63.09  0.0000E+00     -0.00
   90.00    292.00   -999.99  -999.99  -999.99      0.0000      0.00         4.7959E-12    -64.02  0.0000E+00     -0.00
   90.00    293.00   -999.99  -999.99  -999.99      0.0000      0.00         4.8527E-12    -64.97  0.0000E+00     -0.00
   90.00    294.00   -999.99  -999.99  -999.99      0.0000      0.00         4.9114E-12    -65.95  0.0000E+00     -0.00
   90.00    295.00   -999.99  -999.99  -999.99      0.0000      0.00         4.9719E-12    -66.96  0.0000E+00     -0.00
   90.00    296.00   -999.99  -999.99  -999.99      0.0000      0.00         5.0339E-12    -68.00  0.0000E+00     -0.00
   90.00    297.00   -999.99  -999.99  -999.99      0.0000      0.00         5.0975E-12    -69.06  0.0000E+00     -0.00
   90.00    298.00   -999.99  -999.99  -999.99      0.0000      0.00         5.1625E-12    -70.15  0.0000E+00     -0.00
   90.00    299.00   -999.99  -999.99  -999.99      0.0000      0.00         5.2287E-12    -71.26  0.0000E+00     -0.00
   90.00    300.00   -999.99  -999.99  -999.99      0.0000      0.00         5.2960E-12    -72.39  0.0000E+00     -0.00
   90.00    301.00   -999.99  -999.99  -999.99      0.0000      0.00         5.3642E-12    -73.54  0.0000E+00     -0.00
   90.00    302.00   -999.99  -999.99  -999.99      0.0000      0.00         5.4332E-12    -74.72  0.0000E+00     -0.00
   90.00    303.00   -999.99  -999.99  -999.99      0.0000      0.00         5.5027E-12    -75.92  0.0000E+00     -0.00
   90.00    304.00   -999.99  -999.99  -999.99      0.0000      0.00         5.5727E-12    -77.13  0.0000E+00     -0.00
   90.00    305.00   -999.99  -999.99  -999.99      0.0000      0.00         5.6429E-12    -78.37  0.0000E+00     -0.00
   90.00    306.00   -999.99  -999.99  -999.99      0.0000      0.00         5.7131E-12    -79.63  0.0000E+00     -0.00
   90.00    307.00   -999.99  -999.99  -999.99      0.0000      0.00         5.7832E-12    -80.91  0.0000E+00     -0.00
   90.00    308.00   -999.99  -999.99  -999.99      0.0000      0.00         5.8529E-12    -82.20  0.0000E+00     -0.00
   90.00    309.00   -999.99  -999.99  -999.99      0.0000      0.00         5.9220E-12    -83.51  0.0000E+00     -0.00
   90.00    310.00   -999.99  -999.99  -999.99      0.0000      0.00         5.9904E-12    -84.85  0.0000E+00     -0.00
   90.00    311.00   -999.99  -999.99  -999.99      0.0000      0.00         6.0578E-12    -86.20  0.0000E+00     -0.00
   90.00    312.00   -999.99  -999.99  -999.99      0.0000      0.00         6.1240E-12    -87.57  0.0000E+00     -0.00
   90.00    313.00   -999.99  -999.99  -999.99      0.0000      0.00         6.1888E-12    -88.96  0.0000E+00     -0.00
   90.00    314.00   -999.99  -999.99  -999.99      0.0000      0.00         6.2520E-12    -90.37  0.0000E+00     -0.00
   90.00    315.00   -999.99  -999.99  -999.99      0.0000      0.00         6.3134E-12    -91.80  0.0000E+00     -0.00
   90.00    316.00   -999.99  -999.99  -999.99      0.0000      0.00         6.3728E-12    -93.25  0.0000E+00     -0.00
   90.00    317.00   -999.99  -999.99  -999.99      0.0000      0.00         6.4299E-12    -94.71  0.0000E+00     -0.00
   90.00    318.00   -999.99  -999.99  -999.99      0.0000      0.00         6.4846E-12    -96.20  0.0000E+00     -0.00
   90.00    319.00   -999.99  -999.99  -999.99      0.0000      0.00         6.5368E-12    -97.71  0.0000E+00     -0.00
   90.00    320.00   -999.99  -999.99  -999.99      0.0000      0.00         6.5861E-12    -99.24  0.0000E+00     -0.00
   90.00    321.00   -999.99  -999.99  -999.99      0.0000      0.00         6.6326E-12   -100.79  0.0000E+00     -0.00
   90.00    322.00   -999.99  -999.99  -999.99      0.0000      0.00         6.6759E-12   -102.37  0.0000E+00     -0.00
   90.00    323.00   -999.99  -999.99  -999.99      0.0000      0.00         6.7159E-12   -103.96  0.0000E+00     -0.00
   90.00    324.00   -999.99  -999.99  -999.99      0.0000      0.00         6.7525E-12   -105.58  0.0000E+00     -0.00
   90.00    325.00   -999.99  -999.99  -999.99      0.0000      0.00         6.7857E-12   -107.22  0.0000E+00     -0.00
   90.00    326.00   -999.99  -999.99  -999.99      0.0000      0.00         6.8151E-12   -108.89  0.0000E+00     -0.00
   90.00    327.00   -999.99  -999.99  -999.99      0.0000      0.00         6.8409E-12   -110.58  0.0000E+00     -0.00
   90.00    328.00   -999.99  -999.99  -999.99      0.0000      0.00         6.8629E-12   -112.29  0.0000E+00     -0.00
   90.00    329.00   -999.99  -999.99  -999.99      0.0000      0.00         6.8810E-12   -114.04  0.0000E+00     -0.00
   90.00    330.00   -999.99  -999.99  -999.99      0.0000      0.00         6.8951E-12   -115.80  0.0000E+00     -0.00
   90.00    331.00   -999.99  -999.99  -999.99      0.0000      0.00         6.9054E-12   -117.60  0.0000E+00     -0.00
   90.00    332.00   -999.99  -999.99  -999.99      0.0000      0.00         6.9117E-12   -119.42  0.0000E+00     -0.00
   90.00    333.00   -999.99  -999.99  -999.99      0.0000      0.00         6.9140E-12   -121.27  0.0000E+00     -0.00
   90.00    334.00   -999.99  -999.99  -999.99      0.0000      0.00         6.9124E-12   -123.15  0.0000E+00     -0.00
   90.00    335.00   -999.99  -999.99  -999.99      0.0000      0.00         6.9070E-12   -125.05  0.0000E+00     -0.00
   90.00    336.00   -999.99  -999.99  -999.99      0.0000      0.00         6.8977E-12   -126.99  0.0000E+00     -0.00
   90.00    337.00   -999.99  -999.99  -999.99      0.0000      0.00         6.8847E-12   -128.95  0.0000E+00     -0.00
   90.00    338.00   -999.99  -999.99  -999.99      0.0000      0.00         6.8680E-12   -130.95  0.0000E+00     -0.00
   90.00    339.00   -999.99  -999.99  -999.99      0.0000      0.00         6.8478E-12   -132.97  0.0000E+00     -0.00
   90.00    340.00   -999.99  -999.99  -999.99      0.0000      0.00         6.8241E-12   -135.03  0.0000E+00     -0.00
   90.00    341.00   -999.99  -999.99  -999.99      0.0000      0.00         6.7971E-12   -137.11  0.0000E+00     -0.00
   90.00    342.00   -999.99  -999.99  -999.99      0.0000      0.00         6.7670E-12   -139.23  0.0000E+00     -0.00
   90.00    343.00   -999.99  -999.99  -999.99      0.0000      0.00         6.7338E-12   -141.37  0.0000E+00     -0.00
   90.00    344.00   -999.99  -999.99  -999.99      0.0000      0.00         6.6977E-12   -143.54  0.0000E+00     -0.00
   90.00    345.00   -999.99  -999.99  -999.99      0.0000      0.00         6.6589E-12   -145.74  0.0000E+00     -0.00
   90.00    346.00   -999.99  -999.99  -999.99      0.0000      0.00         6.6175E-12   -147.97  0.0000E+00     -0.00
   90.00    347.00   -999.99  -999.99  -999.99      0.0000      0.00         6.5736E-12   -150.23  0.0000E+00     -0.00
   90.00    348.00   -999.99  -999.99  -999.99      0.0000      0.00         6.5275E-12   -152.51  0.0000E+00     -0.00
   90.00    349.00   -999.99  -999.99  -999.99      0.0000      0.00         6.4792E-12   -154.82  0.0000E+00     -0.00
   90.00    350.00   -999.99  -999.99  -999.99      0.0000      0.00         6.4289E-12   -157.15  0.0000E+00     -0.00
   90.00    351.00   -999.99  -999.99  -999.99      0.0000      0.00         6.3767E-12   -159.51  0.0000E+00     -0.00
   90.00    352.00   -999.99  -999.99  -999.99      0.0000      0.00         6.3227E-12   -161.89  0.0000E+00     -0.00
   90.00    353.00   -999.99  -999.99  -999.99      0.0000      0.00         6.2670E-12   -164.29  0.0000E+00     -0.00
   90.00    354.00   -999.99  -999.99  -999.99      0.0000      0.00         6.2097E-12   -166.71  0.0000E+00     -0.00
   90.00    355.00   -999.99  -999.99  -999.99      0.0000      0.00         6.1509E-12   -169.15  0.0000E+00     -0.00
   90.00    356.00   -999.99  -999.99  -999.99      0.0000      0.00         6.0906E-12   -171.60  0.0000E+00     -0.00
   90.00    357.00   -999.99  -999.99  -999.99      0.0000      0.00         6.0288E-12   -174.07  0.0000E+00     -0.00
   90.00    358.00   -999.99  -999.99  -999.99      0.0000      0.00         5.9656E-12   -176.56  0.0000E+00     -0.00
   90.00    359.00   -999.99  -999.99  -999.99      0.0000      0.00         5.9010E-12   -179.05  0.0000E+00     -0.00
   90.00    360.00   -999.99  -999.99  -999.99      0.0000      0.00         5.8349E-12    178.44  0.0000E+00     -0.00



  DATA CARD No:   7 EN   0     0     0     0  0.00000E+00  0.00000E+00  0.00000E+00  0.00000E+00  0.00000E+00  0.00000E+00

  TOTAL RUN TIME: 120 msec