


                                __________________________________________
                               |                                          |
                               | NUMERICAL ELECTROMAGNETICS CODE (nec2++) |
                               | Translated to 'C++' in Double Precision  |
                               |        Version 1.2.4 [2006-03-11]        |
                               |__________________________________________|



                               ---------------- COMMENTS ----------------
                               
                                Hello nec
                               
                               



                                -------- STRUCTURE SPECIFICATION --------
                                COORDINATES MUST BE INPUT IN
                                METERS OR BE SCALED TO METERS
                                BEFORE STRUCTURE INPUT IS ENDED
  WIRE                                                                                 SEG FIRST  LAST  TAG
   No:        X1         Y1         Z1         X2         Y2         Z2       RADIUS   No:   SEG   SEG  No:

     1      0.0000    -0.5000     0.5000     0.0000    -0.5000     1.5000     0.0050    11     1    11    1
     2      0.0000     0.0000     0.5000     0.0000     0.0000     1.5000     0.0050    11    12    22    1
     3      0.0000     0.5000     0.5000     0.0000     0.5000     1.5000     0.0050    11    23    33    1

     GROUND PLANE SPECIFIED.
     WHERE WIRE ENDS TOUCH GROUND, CURRENT WILL BE INTERPOLATED TO IMAGE IN GROUND PLANE.


     TOTAL SEGMENTS USED: 33   SEGMENTS IN A SYMMETRIC CELL: 33   SYMMETRY FLAG: 0


                               ---------- SEGMENTATION DATA ----------
                                        COORDINATES IN METERS
                            I+ AND I- INDICATE THE SEGMENTS BEFORE AND AFTER I

   SEG    COORDINATES OF SEGM CENTER     SEGM    ORIENTATION ANGLES    WIRE    CONNECTION DATA   TAG
   No:       X         Y         Z      LENGTH     ALPHA      BETA    RADIUS    I-     I    I+   NO:
     1    0.0000   -0.5000    0.5455    0.0909   90.0000    0.0000    0.0050     0     1     2     1
     2    0.0000   -0.5000    0.6364    0.0909   90.0000    0.0000    0.0050     1     2     3     1
     3    0.0000   -0.5000    0.7273    0.0909   90.0000    0.0000    0.0050     2     3     4     1
     4    0.0000   -0.5000    0.8182    0.0909   90.0000    0.0000    0.0050     3     4     5     1
     5    0.0000   -0.5000    0.9091    0.0909   90.0000    0.0000    0.0050     4     5     6     1
     6    0.0000   -0.5000    1.0000    0.0909   90.0000    0.0000    0.0050     5     6     7     1
     7    0.0000   -0.5000    1.0909    0.0909   90.0000    0.0000    0.0050     6     7     8     1
     8    0.0000   -0.5000    1.1818    0.0909   90.0000    0.0000    0.0050     7     8     9     1
     9    0.0000   -0.5000    1.2727    0.0909   90.0000    0.0000    0.0050     8     9    10     1
    10    0.0000   -0.5000    1.3636    0.0909   90.0000    0.0000    0.0050     9    10    11     1
    11    0.0000   -0.5000    1.4545    0.0909   90.0000    0.0000    0.0050    10    11     0     1
    12    0.0000    0.0000    0.5455    0.0909   90.0000    0.0000    0.0050     0    12    13     1
    13    0.0000    0.0000    0.6364    0.0909   90.0000    0.0000    0.0050    12    13    14     1
    14    0.0000    0.0000    0.7273    0.0909   90.0000    0.0000    0.0050    13    14    15     1
    15    0.0000    0.0000    0.8182    0.0909   90.0000    0.0000    0.0050    14    15    16     1
    16    0.0000    0.0000    0.9091    0.0909   90.0000    0.0000    0.0050    15    16    17     1
    17    0.0000    0.0000    1.0000    0.0909   90.0000    0.0000    0.0050    16    17    18     1
    18    0.0000    0.0000    1.0909    0.0909   90.0000    0.0000    0.0050    17    18    19     1
    19    0.0000    0.0000    1.1818    0.0909   90.0000    0.0000    0.0050    18    19    20     1
    20    0.0000    0.0000    1.2727    0.0909   90.0000    0.0000    0.0050    19    20    21     1
    21    0.0000    0.0000    1.3636    0.0909   90.0000    0.0000    0.0050    20    21    22     1
    22    0.0000    0.0000    1.4545    0.0909   90.0000    0.0000    0.0050    21    22     0     1
    23    0.0000    0.5000    0.5455    0.0909   90.0000    0.0000    0.0050     0    23    24     1
    24    0.0000    0.5000    0.6364    0.0909   90.0000    0.0000    0.0050    23    24    25     1
    25    0.0000    0.5000    0.7273    0.0909   90.0000    0.0000    0.0050    24    25    26     1
    26    0.0000    0.5000    0.8182    0.0909   90.0000    0.0000    0.0050    25    26    27     1
    27    0.0000    0.5000    0.9091    0.0909   90.0000    0.0000    0.0050    26    27    28     1
    28    0.0000    0.5000    1.0000    0.0909   90.0000    0.0000    0.0050    27    28    29     1
    29    0.0000    0.5000    1.0909    0.0909   90.0000    0.0000    0.0050    28    29    30     1
    30    0.0000    0.5000    1.1818    0.0909   90.0000    0.0000    0.0050    29    30    31     1
    31    0.0000    0.5000    1.2727    0.0909   90.0000    0.0000    0.0050    30    31    32     1
    32    0.0000    0.5000    1.3636    0.0909   90.0000    0.0000    0.0050    31    32    33     1
    33    0.0000    0.5000    1.4545    0.0909   90.0000    0.0000    0.0050    32    33     0     1



*****  DATA CARD N0.   1 GN   2     0     0     0  4.00000E+00  3.00000E-03  0.00000E+00  0.00000E+00  0.00000E+00  0.00000E+00
*****  DATA CARD N0.   2 FR   0     1     0     0  3.00000E+02  5.00000E+00  0.00000E+00  0.00000E+00  0.00000E+00  0.00000E+00
*****  DATA CARD N0.   3 EX   0     1     1     0  1.00000E+00  0.00000E+00  0.00000E+00  0.00000E+00  0.00000E+00  0.00000E+00
*****  DATA CARD N0.   4 EX   0     1     1     0  1.00000E+00  0.00000E+00  0.00000E+00  0.00000E+00  0.00000E+00  0.00000E+00
*****  DATA CARD N0.   5 EX   0     1     1     0  1.00000E+00  0.00000E+00  0.00000E+00  0.00000E+00  0.00000E+00  0.00000E+00
*****  DATA CARD N0.   6 RP   0     1   361  1000  9.00000E+01  0.00000E+00  1.00000E+00  1.00000E+00  0.00000E+00  0.00000E+00


                               --------- FREQUENCY --------
                               FREQUENCY=  3.0000E+02 MHZ
                               WAVELENGTH= 9.9932E-01 METERS


                        APPROXIMATE INTEGRATION EMPLOYED FOR SEGMENTS
                        THAT ARE MORE THAN 1.000 WAVELENGTHS APART



                          ------ STRUCTURE IMPEDANCE LOADING ------
                                 THIS STRUCTURE IS NOT LOADED



                            -------- ANTENNA ENVIRONMENT --------
                            FINITE GROUND - SOMMERFELD SOLUTION

                            RELATIVE DIELECTRIC CONST: 4.000
                            CONDUCTIVITY:  3.000E-03 MHOS/METER
                            COMPLEX DIELECTRIC CONSTANT:  4.0000E+00-1.7975E-01j


                             ---------- MATRIX TIMING ----------
                               FILL= 10 msec  FACTOR: 0 msec


                        --------- ANTENNA INPUT PARAMETERS ---------
  TAG   SEG       VOLTAGE (VOLTS)         CURRENT (AMPS)         IMPEDANCE (OHMS)        ADMITTANCE (MHOS)     POWER
  NO.   NO.     REAL      IMAGINARY     REAL      IMAGINARY     REAL      IMAGINARY    REAL       IMAGINARY   (WATTS)
   1     1  1.0000E+00  0.0000E+00  9.3297E-04  9.0627E-04  5.5148E+02 -5.3570E+02  9.3297E-04  9.0627E-04  4.6649E-04
   1     1  1.0000E+00  0.0000E+00  9.3297E-04  9.0627E-04  5.5148E+02 -5.3570E+02  9.3297E-04  9.0627E-04  4.6649E-04
   1     1  1.0000E+00  0.0000E+00  9.3297E-04  9.0627E-04  5.5148E+02 -5.3570E+02  9.3297E-04  9.0627E-04  4.6649E-04




                           -------- CURRENTS AND LOCATION --------
                                  DISTANCES IN WAVELENGTHS

   SEG  TAG    COORDINATES OF SEGM CENTER     SEGM    ------------- CURRENT (AMPS) -------------
   No:  No:       X         Y         Z      LENGTH     REAL      IMAGINARY    MAGN        PHASE
     1    1    0.0000   -0.5003    0.5458   0.09097  9.3297E-04  9.0627E-04  1.3007E-03   44.168 
     2    1    0.0000   -0.5003    0.6368   0.09097  2.1064E-03 -9.8592E-05  2.1087E-03   -2.680 
     3    1    0.0000   -0.5003    0.7278   0.09097  2.5837E-03 -1.1254E-03  2.8181E-03  -23.536 
     4    1    0.0000   -0.5003    0.8187   0.09097  2.3113E-03 -1.5886E-03  2.8046E-03  -34.501 
     5    1    0.0000   -0.5003    0.9097   0.09097  1.3815E-03 -1.4570E-03  2.0078E-03  -46.524 
     6    1    0.0000   -0.5003    1.0007   0.09097  7.0504E-05 -8.2484E-04  8.2784E-04  -85.114 
     7    1    0.0000   -0.5003    1.0917   0.09097 -1.2376E-03  6.6408E-05  1.2394E-03  176.929 
     8    1    0.0000   -0.5003    1.1826   0.09097 -2.1630E-03  8.9935E-04  2.3425E-03  157.423 
     9    1    0.0000   -0.5003    1.2736   0.09097 -2.4396E-03  1.3783E-03  2.8020E-03  150.534 
    10    1    0.0000   -0.5003    1.3646   0.09097 -1.9881E-03  1.3177E-03  2.3851E-03  146.464 
    11    1    0.0000   -0.5003    1.4555   0.09097 -8.7622E-04  6.4914E-04  1.0905E-03  143.468 
    12    1    0.0000    0.0000    0.5458   0.09097  3.2524E-04  2.0110E-04  3.8239E-04   31.730 
    13    1    0.0000    0.0000    0.6368   0.09097  7.2871E-04  4.5610E-04  8.5968E-04   32.043 
    14    1    0.0000    0.0000    0.7278   0.09097  8.8860E-04  5.6120E-04  1.0510E-03   32.275 
    15    1    0.0000    0.0000    0.8187   0.09097  7.9147E-04  4.9961E-04  9.3597E-04   32.262 
    16    1    0.0000    0.0000    0.9097   0.09097  4.7116E-04  2.8654E-04  5.5145E-04   31.306 
    17    1    0.0000    0.0000    1.0007   0.09097  2.1905E-05 -1.9118E-05  2.9074E-05  -41.113 
    18    1    0.0000    0.0000    1.0917   0.09097 -4.2690E-04 -3.2973E-04  5.3941E-04 -142.318 
    19    1    0.0000    0.0000    1.1826   0.09097 -7.4690E-04 -5.5396E-04  9.2992E-04 -143.436 
    20    1    0.0000    0.0000    1.2736   0.09097 -8.4659E-04 -6.2363E-04  1.0515E-03 -143.623 
    21    1    0.0000    0.0000    1.3646   0.09097 -6.9531E-04 -5.1292E-04  8.6403E-04 -143.584 
    22    1    0.0000    0.0000    1.4555   0.09097 -3.0973E-04 -2.2968E-04  3.8560E-04 -143.441 
    23    1    0.0000    0.5003    0.5458   0.09097 -7.4120E-05 -2.2955E-05  7.7593E-05 -162.792 
    24    1    0.0000    0.5003    0.6368   0.09097 -1.6977E-04 -4.8951E-05  1.7669E-04 -163.916 
    25    1    0.0000    0.5003    0.7278   0.09097 -2.1113E-04 -5.7194E-05  2.1874E-04 -164.843 
    26    1    0.0000    0.5003    0.8187   0.09097 -1.9210E-04 -4.8657E-05  1.9817E-04 -165.787 
    27    1    0.0000    0.5003    0.9097   0.09097 -1.1944E-04 -2.6471E-05  1.2234E-04 -167.504 
    28    1    0.0000    0.5003    1.0007   0.09097 -1.5832E-05  3.0115E-06  1.6116E-05  169.230 
    29    1    0.0000    0.5003    1.0917   0.09097  8.6969E-05  3.1729E-05  9.2576E-05   20.044 
    30    1    0.0000    0.5003    1.1826   0.09097  1.5821E-04  5.1985E-05  1.6653E-04   18.190 
    31    1    0.0000    0.5003    1.2736   0.09097  1.7778E-04  5.8342E-05  1.8711E-04   18.168 
    32    1    0.0000    0.5003    1.3646   0.09097  1.4210E-04  4.8667E-05  1.5020E-04   18.905 
    33    1    0.0000    0.5003    1.4555   0.09097  6.0742E-05  2.2530E-05  6.4786E-05   20.350 



                               ---------- POWER BUDGET ---------
                               INPUT POWER   =  1.3995E-03 Watts
                               RADIATED POWER=  1.3995E-03 Watts
                               STRUCTURE LOSS=  0.0000E+00 Watts
                               NETWORK LOSS  =  0.0000E+00 Watts
                               EFFICIENCY    =  100.00 Percent


                             ---------- RADIATION PATTERNS -----------

 ---- ANGLES -----     ----- POWER GAINS -----       ---- POLARIZATION ----   ---- E(THETA) ----    ----- E(PHI) ------
  THETA      PHI       VERTC   HORIZ   TOTAL       AXIAL      TILT  SENSE   MAGNITUDE    PHASE    MAGNITUDE     PHASE
 DEGREES   DEGREES        DB       DB       DB       RATIO   DEGREES            VOLTS/M   DEGREES     VOLTS/M   DEGREES
   90.00      0.00   -999.99  -999.99  -999.99      0.0000      0.00         5.8348E-12    178.43  0.0000E+00      0.00
   90.00      1.00   -999.99  -999.99  -999.99      0.0000      0.00         5.7673E-12    175.91  0.0000E+00      0.00
   90.00      2.00   -999.99  -999.99  -999.99      0.0000      0.00         5.6982E-12    173.39  0.0000E+00      0.00
   90.00      3.00   -999.99  -999.99  -999.99      0.0000      0.00         5.6275E-12    170.85  0.0000E+00      0.00
   90.00      4.00   -999.99  -999.99  -999.99      0.0000      0.00         5.5552E-12    168.31  0.0000E+00      0.00
   90.00      5.00   -999.99  -999.99  -999.99      0.0000      0.00         5.4812E-12    165.77  0.0000E+00      0.00
   90.00      6.00   -999.99  -999.99  -999.99      0.0000      0.00         5.4054E-12    163.22  0.0000E+00      0.00
   90.00      7.00   -999.99  -999.99  -999.99      0.0000      0.00         5.3278E-12    160.66  0.0000E+00      0.00
   90.00      8.00   -999.99  -999.99  -999.99      0.0000      0.00         5.2483E-12    158.11  0.0000E+00      0.00
   90.00      9.00   -999.99  -999.99  -999.99      0.0000      0.00         5.1667E-12    155.54  0.0000E+00      0.00
   90.00     10.00   -999.99  -999.99  -999.99      0.0000      0.00         5.0832E-12    152.97  0.0000E+00      0.00
   90.00     11.00   -999.99  -999.99  -999.99      0.0000      0.00         4.9975E-12    150.39  0.0000E+00      0.00
   90.00     12.00   -999.99  -999.99  -999.99      0.0000      0.00         4.9097E-12    147.81  0.0000E+00      0.00
   90.00     13.00   -999.99  -999.99  -999.99      0.0000      0.00         4.8198E-12    145.21  0.0000E+00      0.00
   90.00     14.00   -999.99  -999.99  -999.99      0.0000      0.00         4.7277E-12    142.60  0.0000E+00      0.00
   90.00     15.00   -999.99  -999.99  -999.99      0.0000      0.00         4.6334E-12    139.98  0.0000E+00      0.00
   90.00     16.00   -999.99  -999.99  -999.99      0.0000      0.00         4.5371E-12    137.35  0.0000E+00      0.00
   90.00     17.00   -999.99  -999.99  -999.99      0.0000      0.00         4.4388E-12    134.69  0.0000E+00      0.00
   90.00     18.00   -999.99  -999.99  -999.99      0.0000      0.00         4.3385E-12    132.01  0.0000E+00      0.00
   90.00     19.00   -999.99  -999.99  -999.99      0.0000      0.00         4.2364E-12    129.30  0.0000E+00      0.00
   90.00     20.00   -999.99  -999.99  -999.99      0.0000      0.00         4.1327E-12    126.56  0.0000E+00      0.00
   90.00     21.00   -999.99  -999.99  -999.99      0.0000      0.00         4.0274E-12    123.78  0.0000E+00      0.00
   90.00     22.00   -999.99  -999.99  -999.99      0.0000      0.00         3.9210E-12    120.95  0.0000E+00      0.00
   90.00     23.00   -999.99  -999.99  -999.99      0.0000      0.00         3.8136E-12    118.08  0.0000E+00      0.00
   90.00     24.00   -999.99  -999.99  -999.99      0.0000      0.00         3.7055E-12    115.14  0.0000E+00      0.00
   90.00     25.00   -999.99  -999.99  -999.99      0.0000      0.00         3.5970E-12    112.14  0.0000E+00      0.00
   90.00     26.00   -999.99  -999.99  -999.99      0.0000      0.00         3.4885E-12    109.07  0.0000E+00      0.00
   90.00     27.00   -999.99  -999.99  -999.99      0.0000      0.00         3.3805E-12    105.91  0.0000E+00      0.00
   90.00     28.00   -999.99  -999.99  -999.99      0.0000      0.00         3.2734E-12    102.66  0.0000E+00      0.00
   90.00     29.00   -999.99  -999.99  -999.99      0.0000      0.00         3.1677E-12     99.31  0.0000E+00      0.00
   90.00     30.00   -999.99  -999.99  -999.99      0.0000      0.00         3.0640E-12     95.84  0.0000E+00      0.00
   90.00     31.00   -999.99  -999.99  -999.99      0.0000      0.00         2.9629E-12     92.25  0.0000E+00      0.00
   90.00     32.00   -999.99  -999.99  -999.99      0.0000      0.00         2.8650E-12     88.52  0.0000E+00      0.00
   90.00     33.00   -999.99  -999.99  -999.99      0.0000      0.00         2.7710E-12     84.65  0.0000E+00      0.00
   90.00     34.00   -999.99  -999.99  -999.99      0.0000      0.00         2.6817E-12     80.63  0.0000E+00      0.00
   90.00     35.00   -999.99  -999.99  -999.99      0.0000      0.00         2.5977E-12     76.46  0.0000E+00      0.00
   90.00     36.00   -999.99  -999.99  -999.99      0.0000      0.00         2.5200E-12     72.12  0.0000E+00      0.00
   90.00     37.00   -999.99  -999.99  -999.99      0.0000      0.00         2.4491E-12     67.64  0.0000E+00      0.00
   90.00     38.00   -999.99  -999.99  -999.99      0.0000      0.00         2.3860E-12     63.00  0.0000E+00      0.00
   90.00     39.00   -999.99  -999.99  -999.99      0.0000      0.00         2.3313E-12     58.23  0.0000E+00      0.00
   90.00     40.00   -999.99  -999.99  -999.99      0.0000      0.00         2.2855E-12     53.35  0.0000E+00      0.00
   90.00     41.00   -999.99  -999.99  -999.99      0.0000      0.00         2.2492E-12     48.38  0.0000E+00      0.00
   90.00     42.00   -999.99  -999.99  -999.99      0.0000      0.00         2.2229E-12     43.36  0.0000E+00      0.00
   90.00     43.00   -999.99  -999.99  -999.99      0.0000      0.00         2.2064E-12     38.32  0.0000E+00      0.00
   90.00     44.00   -999.99  -999.99  -999.99      0.0000      0.00         2.2000E-12     33.30  0.0000E+00      0.00
   90.00     45.00   -999.99  -999.99  -999.99      0.0000      0.00         2.2034E-12     28.34  0.0000E+00      0.00
   90.00     46.00   -999.99  -999.99  -999.99      0.0000      0.00         2.2163E-12     23.47  0.0000E+00      0.00
   90.00     47.00   -999.99  -999.99  -999.99      0.0000      0.00         2.2379E-12     18.75  0.0000E+00      0.00
   90.00     48.00   -999.99  -999.99  -999.99      0.0000      0.00         2.2678E-12     14.18  0.0000E+00      0.00
   90.00     49.00   -999.99  -999.99  -999.99      0.0000      0.00         2.3053E-12      9.79  0.0000E+00      0.00
   90.00     50.00   -999.99  -999.99  -999.99      0.0000      0.00         2.3493E-12      5.60  0.0000E+00      0.00
   90.00     51.00   -999.99  -999.99  -999.99      0.0000      0.00         2.3992E-12      1.61  0.0000E+00      0.00
   90.00     52.00   -999.99  -999.99  -999.99      0.0000      0.00         2.4540E-12     -2.16  0.0000E+00      0.00
   90.00     53.00   -999.99  -999.99  -999.99      0.0000      0.00         2.5131E-12     -5.73  0.0000E+00      0.00
   90.00     54.00   -999.99  -999.99  -999.99      0.0000      0.00         2.5755E-12     -9.09  0.0000E+00      0.00
   90.00     55.00   -999.99  -999.99  -999.99      0.0000      0.00         2.6406E-12    -12.26  0.0000E+00      0.00
   90.00     56.00   -999.99  -999.99  -999.99      0.0000      0.00         2.7078E-12    -15.23  0.0000E+00      0.00
   90.00     57.00   -999.99  -999.99  -999.99      0.0000      0.00         2.7763E-12    -18.03  0.0000E+00      0.00
   90.00     58.00   -999.99  -999.99  -999.99      0.0000      0.00         2.8458E-12    -20.65  0.0000E+00      0.00
   90.00     59.00   -999.99  -999.99  -999.99      0.0000      0.00         2.9157E-12    -23.11  0.0000E+00      0.00
   90.00     60.00   -999.99  -999.99  -999.99      0.0000      0.00         2.9856E-12    -25.43  0.0000E+00      0.00
   90.00     61.00   -999.99  -999.99  -999.99      0.0000      0.00         3.0550E-12    -27.60  0.0000E+00      0.00
   90.00     62.00   -999.99  -999.99  -999.99      0.0000      0.00         3.1237E-12    -29.63  0.0000E+00      0.00
   90.00     63.00   -999.99  -999.99  -999.99      0.0000      0.00         3.1914E-12    -31.55  0.0000E+00      0.00
   90.00     64.00   -999.99  -999.99  -999.99      0.0000      0.00         3.2578E-12    -33.35  0.0000E+00      0.00
   90.00     65.00   -999.99  -999.99  -999.99      0.0000      0.00         3.3227E-12    -35.03  0.0000E+00      0.00
   90.00     66.00   -999.99  -999.99  -999.99      0.0000      0.00         3.3858E-12    -36.62  0.0000E+00      0.00
   90.00     67.00   -999.99  -999.99  -999.99      0.0000      0.00         3.4470E-12    -38.10  0.0000E+00      0.00
   90.00     68.00   -999.99  -999.99  -999.99      0.0000      0.00         3.5062E-12    -39.50  0.0000E+00      0.00
   90.00     69.00   -999.99  -999.99  -999.99      0.0000      0.00         3.5633E-12    -40.80  0.0000E+00      0.00
   90.00     70.00   -999.99  -999.99  -999.99      0.0000      0.00         3.6180E-12    -42.03  0.0000E+00      0.00
   90.00     71.00   -999.99  -999.99  -999.99      0.0000      0.00         3.6704E-12    -43.17  0.0000E+00      0.00
   90.00     72.00   -999.99  -999.99  -999.99      0.0000      0.00         3.7204E-12    -44.24  0.0000E+00      0.00
   90.00     73.00   -999.99  -999.99  -999.99      0.0000      0.00         3.7678E-12    -45.24  0.0000E+00      0.00
   90.00     74.00   -999.99  -999.99  -999.99      0.0000      0.00         3.8128E-12    -46.16  0.0000E+00      0.00
   90.00     75.00   -999.99  -999.99  -999.99      0.0000      0.00         3.8550E-12    -47.02  0.0000E+00      0.00
   90.00     76.00   -999.99  -999.99  -999.99      0.0000      0.00         3.8947E-12    -47.82  0.0000E+00      0.00
   90.00     77.00   -999.99  -999.99  -999.99      0.0000      0.00         3.9317E-12    -48.55  0.0000E+00      0.00
   90.00     78.00   -999.99  -999.99  -999.99      0.0000      0.00         3.9660E-12    -49.22  0.0000E+00      0.00
   90.00     79.00   -999.99  -999.99  -999.99      0.0000      0.00         3.9976E-12    -49.84  0.0000E+00      0.00
   90.00     80.00   -999.99  -999.99  -999.99      0.0000      0.00         4.0264E-12    -50.39  0.0000E+00      0.00
   90.00     81.00   -999.99  -999.99  -999.99      0.0000      0.00         4.0526E-12    -50.89  0.0000E+00      0.00
   90.00     82.00   -999.99  -999.99  -999.99      0.0000      0.00         4.0760E-12    -51.34  0.0000E+00      0.00
   90.00     83.00   -999.99  -999.99  -999.99      0.0000      0.00         4.0966E-12    -51.72  0.0000E+00      0.00
   90.00     84.00   -999.99  -999.99  -999.99      0.0000      0.00         4.1146E-12    -52.06  0.0000E+00      0.00
   90.00     85.00   -999.99  -999.99  -999.99      0.0000      0.00         4.1297E-12    -52.34  0.0000E+00      0.00
   90.00     86.00   -999.99  -999.99  -999.99      0.0000      0.00         4.1421E-12    -52.57  0.0000E+00      0.00
   90.00     87.00   -999.99  -999.99  -999.99      0.0000      0.00         4.1518E-12    -52.75  0.0000E+00      0.00
   90.00     88.00   -999.99  -999.99  -999.99      0.0000      0.00         4.1586E-12    -52.88  0.0000E+00      0.00
   90.00     89.00   -999.99  -999.99  -999.99      0.0000      0.00         4.1628E-12    -52.96  0.0000E+00      0.00
   90.00     90.00   -999.99  -999.99  -999.99      0.0000      0.00         4.1642E-12    -52.98  0.0000E+00    180.00
   90.00     91.00   -999.99  -999.99  -999.99      0.0000      0.00         4.1627E-12    -52.96  0.0000E+00    180.00
   90.00     92.00   -999.99  -999.99  -999.99      0.0000      0.00         4.1586E-12    -52.88  0.0000E+00    180.00
   90.00     93.00   -999.99  -999.99  -999.99      0.0000      0.00         4.1518E-12    -52.75  0.0000E+00    180.00
   90.00     94.00   -999.99  -999.99  -999.99      0.0000      0.00         4.1421E-12    -52.57  0.0000E+00    180.00
   90.00     95.00   -999.99  -999.99  -999.99      0.0000      0.00         4.1297E-12    -52.34  0.0000E+00    180.00
   90.00     96.00   -999.99  -999.99  -999.99      0.0000      0.00         4.1145E-12    -52.06  0.0000E+00    180.00
   90.00     97.00   -999.99  -999.99  -999.99      0.0000      0.00         4.0966E-12    -51.72  0.0000E+00    180.00
   90.00     98.00   -999.99  -999.99  -999.99      0.0000      0.00         4.0760E-12    -51.34  0.0000E+00    180.00
   90.00     99.00   -999.99  -999.99  -999.99      0.0000      0.00         4.0526E-12    -50.89  0.0000E+00    180.00
   90.00    100.00   -999.99  -999.99  -999.99      0.0000      0.00         4.0265E-12    -50.39  0.0000E+00    180.00
   90.00    101.00   -999.99  -999.99  -999.99      0.0000      0.00         3.9976E-12    -49.84  0.0000E+00    180.00
   90.00    102.00   -999.99  -999.99  -999.99      0.0000      0.00         3.9660E-12    -49.22  0.0000E+00    180.00
   90.00    103.00   -999.99  -999.99  -999.99      0.0000      0.00         3.9317E-12    -48.55  0.0000E+00    180.00
   90.00    104.00   -999.99  -999.99  -999.99      0.0000      0.00         3.8947E-12    -47.82  0.0000E+00    180.00
   90.00    105.00   -999.99  -999.99  -999.99      0.0000      0.00         3.8551E-12    -47.02  0.0000E+00    180.00
   90.00    106.00   -999.99  -999.99  -999.99      0.0000      0.00         3.8128E-12    -46.16  0.0000E+00    180.00
   90.00    107.00   -999.99  -999.99  -999.99      0.0000      0.00         3.7678E-12    -45.24  0.0000E+00    180.00
   90.00    108.00   -999.99  -999.99  -999.99      0.0000      0.00         3.7204E-12    -44.24  0.0000E+00    180.00
   90.00    109.00   -999.99  -999.99  -999.99      0.0000      0.00         3.6704E-12    -43.17  0.0000E+00    180.00
   90.00    110.00   -999.99  -999.99  -999.99      0.0000      0.00         3.6180E-12    -42.03  0.0000E+00    180.00
   90.00    111.00   -999.99  -999.99  -999.99      0.0000      0.00         3.5633E-12    -40.80  0.0000E+00    180.00
   90.00    112.00   -999.99  -999.99  -999.99      0.0000      0.00         3.5062E-12    -39.50  0.0000E+00    180.00
   90.00    113.00   -999.99  -999.99  -999.99      0.0000      0.00         3.4470E-12    -38.10  0.0000E+00    180.00
   90.00    114.00   -999.99  -999.99  -999.99      0.0000      0.00         3.3858E-12    -36.62  0.0000E+00    180.00
   90.00    115.00   -999.99  -999.99  -999.99      0.0000      0.00         3.3226E-12    -35.03  0.0000E+00    180.00
   90.00    116.00   -999.99  -999.99  -999.99      0.0000      0.00         3.2578E-12    -33.35  0.0000E+00    180.00
   90.00    117.00   -999.99  -999.99  -999.99      0.0000      0.00         3.1914E-12    -31.55  0.0000E+00    180.00
   90.00    118.00   -999.99  -999.99  -999.99      0.0000      0.00         3.1237E-12    -29.63  0.0000E+00    180.00
   90.00    119.00   -999.99  -999.99  -999.99      0.0000      0.00         3.0550E-12    -27.60  0.0000E+00    180.00
   90.00    120.00   -999.99  -999.99  -999.99      0.0000      0.00         2.9856E-12    -25.43  0.0000E+00    180.00
   90.00    121.00   -999.99  -999.99  -999.99      0.0000      0.00         2.9157E-12    -23.11  0.0000E+00    180.00
   90.00    122.00   -999.99  -999.99  -999.99      0.0000      0.00         2.8458E-12    -20.65  0.0000E+00    180.00
   90.00    123.00   -999.99  -999.99  -999.99      0.0000      0.00         2.7763E-12    -18.02  0.0000E+00    180.00
   90.00    124.00   -999.99  -999.99  -999.99      0.0000      0.00         2.7078E-12    -15.23  0.0000E+00    180.00
   90.00    125.00   -999.99  -999.99  -999.99      0.0000      0.00         2.6406E-12    -12.26  0.0000E+00    180.00
   90.00    126.00   -999.99  -999.99  -999.99      0.0000      0.00         2.5754E-12     -9.09  0.0000E+00    180.00
   90.00    127.00   -999.99  -999.99  -999.99      0.0000      0.00         2.5130E-12     -5.73  0.0000E+00    180.00
   90.00    128.00   -999.99  -999.99  -999.99      0.0000      0.00         2.4540E-12     -2.16  0.0000E+00    180.00
   90.00    129.00   -999.99  -999.99  -999.99      0.0000      0.00         2.3992E-12      1.61  0.0000E+00    180.00
   90.00    130.00   -999.99  -999.99  -999.99      0.0000      0.00         2.3493E-12      5.60  0.0000E+00    180.00
   90.00    131.00   -999.99  -999.99  -999.99      0.0000      0.00         2.3052E-12      9.79  0.0000E+00    180.00
   90.00    132.00   -999.99  -999.99  -999.99      0.0000      0.00         2.2679E-12     14.18  0.0000E+00    180.00
   90.00    133.00   -999.99  -999.99  -999.99      0.0000      0.00         2.2379E-12     18.75  0.0000E+00    180.00
   90.00    134.00   -999.99  -999.99  -999.99      0.0000      0.00         2.2162E-12     23.47  0.0000E+00    180.00
   90.00    135.00   -999.99  -999.99  -999.99      0.0000      0.00         2.2034E-12     28.34  0.0000E+00    180.00
   90.00    136.00   -999.99  -999.99  -999.99      0.0000      0.00         2.2000E-12     33.30  0.0000E+00    180.00
   90.00    137.00   -999.99  -999.99  -999.99      0.0000      0.00         2.2064E-12     38.32  0.0000E+00    180.00
   90.00    138.00   -999.99  -999.99  -999.99      0.0000      0.00         2.2229E-12     43.36  0.0000E+00    180.00
   90.00    139.00   -999.99  -999.99  -999.99      0.0000      0.00         2.2493E-12     48.38  0.0000E+00    180.00
   90.00    140.00   -999.99  -999.99  -999.99      0.0000      0.00         2.2855E-12     53.35  0.0000E+00    180.00
   90.00    141.00   -999.99  -999.99  -999.99      0.0000      0.00         2.3313E-12     58.23  0.0000E+00    180.00
   90.00    142.00   -999.99  -999.99  -999.99      0.0000      0.00         2.3860E-12     63.00  0.0000E+00    180.00
   90.00    143.00   -999.99  -999.99  -999.99      0.0000      0.00         2.4491E-12     67.64  0.0000E+00    180.00
   90.00    144.00   -999.99  -999.99  -999.99      0.0000      0.00         2.5200E-12     72.12  0.0000E+00    180.00
   90.00    145.00   -999.99  -999.99  -999.99      0.0000      0.00         2.5977E-12     76.46  0.0000E+00    180.00
   90.00    146.00   -999.99  -999.99  -999.99      0.0000      0.00         2.6817E-12     80.63  0.0000E+00    180.00
   90.00    147.00   -999.99  -999.99  -999.99      0.0000      0.00         2.7710E-12     84.65  0.0000E+00    180.00
   90.00    148.00   -999.99  -999.99  -999.99      0.0000      0.00         2.8650E-12     88.52  0.0000E+00    180.00
   90.00    149.00   -999.99  -999.99  -999.99      0.0000      0.00         2.9629E-12     92.25  0.0000E+00    180.00
   90.00    150.00   -999.99  -999.99  -999.99      0.0000      0.00         3.0640E-12     95.84  0.0000E+00    180.00
   90.00    151.00   -999.99  -999.99  -999.99      0.0000      0.00         3.1677E-12     99.31  0.0000E+00    180.00
   90.00    152.00   -999.99  -999.99  -999.99      0.0000      0.00         3.2734E-12    102.66  0.0000E+00    180.00
   90.00    153.00   -999.99  -999.99  -999.99      0.0000      0.00         3.3805E-12    105.91  0.0000E+00    180.00
   90.00    154.00   -999.99  -999.99  -999.99      0.0000      0.00         3.4885E-12    109.07  0.0000E+00    180.00
   90.00    155.00   -999.99  -999.99  -999.99      0.0000      0.00         3.5970E-12    112.14  0.0000E+00    180.00
   90.00    156.00   -999.99  -999.99  -999.99      0.0000      0.00         3.7055E-12    115.14  0.0000E+00    180.00
   90.00    157.00   -999.99  -999.99  -999.99      0.0000      0.00         3.8136E-12    118.08  0.0000E+00    180.00
   90.00    158.00   -999.99  -999.99  -999.99      0.0000      0.00         3.9210E-12    120.95  0.0000E+00    180.00
   90.00    159.00   -999.99  -999.99  -999.99      0.0000      0.00         4.0274E-12    123.78  0.0000E+00    180.00
   90.00    160.00   -999.99  -999.99  -999.99      0.0000      0.00         4.1326E-12    126.56  0.0000E+00    180.00
   90.00    161.00   -999.99  -999.99  -999.99      0.0000      0.00         4.2364E-12    129.30  0.0000E+00    180.00
   90.00    162.00   -999.99  -999.99  -999.99      0.0000      0.00         4.3385E-12    132.01  0.0000E+00    180.00
   90.00    163.00   -999.99  -999.99  -999.99      0.0000      0.00         4.4388E-12    134.69  0.0000E+00    180.00
   90.00    164.00   -999.99  -999.99  -999.99      0.0000      0.00         4.5371E-12    137.35  0.0000E+00    180.00
   90.00    165.00   -999.99  -999.99  -999.99      0.0000      0.00         4.6335E-12    139.99  0.0000E+00    180.00
   90.00    166.00   -999.99  -999.99  -999.99      0.0000      0.00         4.7277E-12    142.61  0.0000E+00    180.00
   90.00    167.00   -999.99  -999.99  -999.99      0.0000      0.00         4.8198E-12    145.21  0.0000E+00    180.00
   90.00    168.00   -999.99  -999.99  -999.99      0.0000      0.00         4.9097E-12    147.81  0.0000E+00    180.00
   90.00    169.00   -999.99  -999.99  -999.99      0.0000      0.00         4.9975E-12    150.39  0.0000E+00    180.00
   90.00    170.00   -999.99  -999.99  -999.99      0.0000      0.00         5.0832E-12    152.97  0.0000E+00    180.00
   90.00    171.00   -999.99  -999.99  -999.99      0.0000      0.00         5.1668E-12    155.54  0.0000E+00    180.00
   90.00    172.00   -999.99  -999.99  -999.99      0.0000      0.00         5.2482E-12    158.11  0.0000E+00    180.00
   90.00    173.00   -999.99  -999.99  -999.99      0.0000      0.00         5.3278E-12    160.67  0.0000E+00    180.00
   90.00    174.00   -999.99  -999.99  -999.99      0.0000      0.00         5.4054E-12    163.22  0.0000E+00    180.00
   90.00    175.00   -999.99  -999.99  -999.99      0.0000      0.00         5.4812E-12    165.77  0.0000E+00    180.00
   90.00    176.00   -999.99  -999.99  -999.99      0.0000      0.00         5.5552E-12    168.31  0.0000E+00    180.00
   90.00    177.00   -999.99  -999.99  -999.99      0.0000      0.00         5.6275E-12    170.85  0.0000E+00    180.00
   90.00    178.00   -999.99  -999.99  -999.99      0.0000      0.00         5.6982E-12    173.39  0.0000E+00    180.00
   90.00    179.00   -999.99  -999.99  -999.99      0.0000      0.00         5.7673E-12    175.91  0.0000E+00    180.00
   90.00    180.00   -999.99  -999.99  -999.99      0.0000      0.00         5.8348E-12    178.43  0.0000E+00      0.00
   90.00    181.00   -999.99  -999.99  -999.99      0.0000      0.00         5.9009E-12   -179.07  0.0000E+00      0.00
   90.00    182.00   -999.99  -999.99  -999.99      0.0000      0.00         5.9655E-12   -176.57  0.0000E+00      0.00
   90.00    183.00   -999.99  -999.99  -999.99      0.0000      0.00         6.0287E-12   -174.09  0.0000E+00      0.00
   90.00    184.00   -999.99  -999.99  -999.99      0.0000      0.00         6.0905E-12   -171.61  0.0000E+00      0.00
   90.00    185.00   -999.99  -999.99  -999.99      0.0000      0.00         6.1507E-12   -169.16  0.0000E+00      0.00
   90.00    186.00   -999.99  -999.99  -999.99      0.0000      0.00         6.2096E-12   -166.72  0.0000E+00      0.00
   90.00    187.00   -999.99  -999.99  -999.99      0.0000      0.00         6.2668E-12   -164.30  0.0000E+00      0.00
   90.00    188.00   -999.99  -999.99  -999.99      0.0000      0.00         6.3225E-12   -161.90  0.0000E+00      0.00
   90.00    189.00   -999.99  -999.99  -999.99      0.0000      0.00         6.3765E-12   -159.52  0.0000E+00      0.00
   90.00    190.00   -999.99  -999.99  -999.99      0.0000      0.00         6.4286E-12   -157.16  0.0000E+00      0.00
   90.00    191.00   -999.99  -999.99  -999.99      0.0000      0.00         6.4789E-12   -154.83  0.0000E+00      0.00
   90.00    192.00   -999.99  -999.99  -999.99      0.0000      0.00         6.5272E-12   -152.52  0.0000E+00      0.00
   90.00    193.00   -999.99  -999.99  -999.99      0.0000      0.00         6.5733E-12   -150.24  0.0000E+00      0.00
   90.00    194.00   -999.99  -999.99  -999.99      0.0000      0.00         6.6172E-12   -147.98  0.0000E+00      0.00
   90.00    195.00   -999.99  -999.99  -999.99      0.0000      0.00         6.6586E-12   -145.75  0.0000E+00      0.00
   90.00    196.00   -999.99  -999.99  -999.99      0.0000      0.00         6.6973E-12   -143.55  0.0000E+00      0.00
   90.00    197.00   -999.99  -999.99  -999.99      0.0000      0.00         6.7334E-12   -141.38  0.0000E+00      0.00
   90.00    198.00   -999.99  -999.99  -999.99      0.0000      0.00         6.7666E-12   -139.24  0.0000E+00      0.00
   90.00    199.00   -999.99  -999.99  -999.99      0.0000      0.00         6.7967E-12   -137.12  0.0000E+00      0.00
   90.00    200.00   -999.99  -999.99  -999.99      0.0000      0.00         6.8237E-12   -135.04  0.0000E+00      0.00
   90.00    201.00   -999.99  -999.99  -999.99      0.0000      0.00         6.8473E-12   -132.98  0.0000E+00      0.00
   90.00    202.00   -999.99  -999.99  -999.99      0.0000      0.00         6.8676E-12   -130.96  0.0000E+00      0.00
   90.00    203.00   -999.99  -999.99  -999.99      0.0000      0.00         6.8842E-12   -128.97  0.0000E+00      0.00
   90.00    204.00   -999.99  -999.99  -999.99      0.0000      0.00         6.8972E-12   -127.00  0.0000E+00      0.00
   90.00    205.00   -999.99  -999.99  -999.99      0.0000      0.00         6.9065E-12   -125.06  0.0000E+00      0.00
   90.00    206.00   -999.99  -999.99  -999.99      0.0000      0.00         6.9120E-12   -123.16  0.0000E+00      0.00
   90.00    207.00   -999.99  -999.99  -999.99      0.0000      0.00         6.9135E-12   -121.28  0.0000E+00      0.00
   90.00    208.00   -999.99  -999.99  -999.99      0.0000      0.00         6.9111E-12   -119.43  0.0000E+00      0.00
   90.00    209.00   -999.99  -999.99  -999.99      0.0000      0.00         6.9049E-12   -117.61  0.0000E+00      0.00
   90.00    210.00   -999.99  -999.99  -999.99      0.0000      0.00         6.8946E-12   -115.81  0.0000E+00      0.00
   90.00    211.00   -999.99  -999.99  -999.99      0.0000      0.00         6.8804E-12   -114.04  0.0000E+00      0.00
   90.00    212.00   -999.99  -999.99  -999.99      0.0000      0.00         6.8623E-12   -112.30  0.0000E+00      0.00
   90.00    213.00   -999.99  -999.99  -999.99      0.0000      0.00         6.8403E-12   -110.59  0.0000E+00      0.00
   90.00    214.00   -999.99  -999.99  -999.99      0.0000      0.00         6.8146E-12   -108.90  0.0000E+00      0.00
   90.00    215.00   -999.99  -999.99  -999.99      0.0000      0.00         6.7851E-12   -107.23  0.0000E+00      0.00
   90.00    216.00   -999.99  -999.99  -999.99      0.0000      0.00         6.7520E-12   -105.59  0.0000E+00      0.00
   90.00    217.00   -999.99  -999.99  -999.99      0.0000      0.00         6.7153E-12   -103.97  0.0000E+00      0.00
   90.00    218.00   -999.99  -999.99  -999.99      0.0000      0.00         6.6753E-12   -102.37  0.0000E+00      0.00
   90.00    219.00   -999.99  -999.99  -999.99      0.0000      0.00         6.6320E-12   -100.80  0.0000E+00      0.00
   90.00    220.00   -999.99  -999.99  -999.99      0.0000      0.00         6.5856E-12    -99.25  0.0000E+00      0.00
   90.00    221.00   -999.99  -999.99  -999.99      0.0000      0.00         6.5362E-12    -97.72  0.0000E+00      0.00
   90.00    222.00   -999.99  -999.99  -999.99      0.0000      0.00         6.4841E-12    -96.21  0.0000E+00      0.00
   90.00    223.00   -999.99  -999.99  -999.99      0.0000      0.00         6.4293E-12    -94.72  0.0000E+00      0.00
   90.00    224.00   -999.99  -999.99  -999.99      0.0000      0.00         6.3722E-12    -93.25  0.0000E+00      0.00
   90.00    225.00   -999.99  -999.99  -999.99      0.0000      0.00         6.3128E-12    -91.81  0.0000E+00      0.00
   90.00    226.00   -999.99  -999.99  -999.99      0.0000      0.00         6.2514E-12    -90.38  0.0000E+00      0.00
   90.00    227.00   -999.99  -999.99  -999.99      0.0000      0.00         6.1883E-12    -88.97  0.0000E+00      0.00
   90.00    228.00   -999.99  -999.99  -999.99      0.0000      0.00         6.1235E-12    -87.58  0.0000E+00      0.00
   90.00    229.00   -999.99  -999.99  -999.99      0.0000      0.00         6.0572E-12    -86.21  0.0000E+00      0.00
   90.00    230.00   -999.99  -999.99  -999.99      0.0000      0.00         5.9899E-12    -84.85  0.0000E+00      0.00
   90.00    231.00   -999.99  -999.99  -999.99      0.0000      0.00         5.9215E-12    -83.52  0.0000E+00      0.00
   90.00    232.00   -999.99  -999.99  -999.99      0.0000      0.00         5.8524E-12    -82.21  0.0000E+00      0.00
   90.00    233.00   -999.99  -999.99  -999.99      0.0000      0.00         5.7827E-12    -80.91  0.0000E+00      0.00
   90.00    234.00   -999.99  -999.99  -999.99      0.0000      0.00         5.7126E-12    -79.63  0.0000E+00      0.00
   90.00    235.00   -999.99  -999.99  -999.99      0.0000      0.00         5.6423E-12    -78.38  0.0000E+00      0.00
   90.00    236.00   -999.99  -999.99  -999.99      0.0000      0.00         5.5722E-12    -77.14  0.0000E+00      0.00
   90.00    237.00   -999.99  -999.99  -999.99      0.0000      0.00         5.5022E-12    -75.92  0.0000E+00      0.00
   90.00    238.00   -999.99  -999.99  -999.99      0.0000      0.00         5.4326E-12    -74.73  0.0000E+00      0.00
   90.00    239.00   -999.99  -999.99  -999.99      0.0000      0.00         5.3637E-12    -73.55  0.0000E+00      0.00
   90.00    240.00   -999.99  -999.99  -999.99      0.0000      0.00         5.2955E-12    -72.39  0.0000E+00      0.00
   90.00    241.00   -999.99  -999.99  -999.99      0.0000      0.00         5.2282E-12    -71.26  0.0000E+00      0.00
   90.00    242.00   -999.99  -999.99  -999.99      0.0000      0.00         5.1620E-12    -70.15  0.0000E+00      0.00
   90.00    243.00   -999.99  -999.99  -999.99      0.0000      0.00         5.0970E-12    -69.06  0.0000E+00      0.00
   90.00    244.00   -999.99  -999.99  -999.99      0.0000      0.00         5.0335E-12    -68.00  0.0000E+00      0.00
   90.00    245.00   -999.99  -999.99  -999.99      0.0000      0.00         4.9714E-12    -66.97  0.0000E+00      0.00
   90.00    246.00   -999.99  -999.99  -999.99      0.0000      0.00         4.9109E-12    -65.96  0.0000E+00      0.00
   90.00    247.00   -999.99  -999.99  -999.99      0.0000      0.00         4.8523E-12    -64.97  0.0000E+00      0.00
   90.00    248.00   -999.99  -999.99  -999.99      0.0000      0.00         4.7955E-12    -64.02  0.0000E+00      0.00
   90.00    249.00   -999.99  -999.99  -999.99      0.0000      0.00         4.7406E-12    -63.10  0.0000E+00      0.00
   90.00    250.00   -999.99  -999.99  -999.99      0.0000      0.00         4.6878E-12    -62.20  0.0000E+00      0.00
   90.00    251.00   -999.99  -999.99  -999.99      0.0000      0.00         4.6372E-12    -61.34  0.0000E+00      0.00
   90.00    252.00   -999.99  -999.99  -999.99      0.0000      0.00         4.5888E-12    -60.51  0.0000E+00      0.00
   90.00    253.00   -999.99  -999.99  -999.99      0.0000      0.00         4.5427E-12    -59.72  0.0000E+00      0.00
   90.00    254.00   -999.99  -999.99  -999.99      0.0000      0.00         4.4989E-12    -58.96  0.0000E+00      0.00
   90.00    255.00   -999.99  -999.99  -999.99      0.0000      0.00         4.4576E-12    -58.24  0.0000E+00      0.00
   90.00    256.00   -999.99  -999.99  -999.99      0.0000      0.00         4.4187E-12    -57.56  0.0000E+00      0.00
   90.00    257.00   -999.99  -999.99  -999.99      0.0000      0.00         4.3824E-12    -56.92  0.0000E+00      0.00
   90.00    258.00   -999.99  -999.99  -999.99      0.0000      0.00         4.3486E-12    -56.32  0.0000E+00      0.00
   90.00    259.00   -999.99  -999.99  -999.99      0.0000      0.00         4.3174E-12    -55.77  0.0000E+00      0.00
   90.00    260.00   -999.99  -999.99  -999.99      0.0000      0.00         4.2888E-12    -55.26  0.0000E+00      0.00
   90.00    261.00   -999.99  -999.99  -999.99      0.0000      0.00         4.2630E-12    -54.79  0.0000E+00      0.00
   90.00    262.00   -999.99  -999.99  -999.99      0.0000      0.00         4.2397E-12    -54.37  0.0000E+00      0.00
   90.00    263.00   -999.99  -999.99  -999.99      0.0000      0.00         4.2191E-12    -53.99  0.0000E+00      0.00
   90.00    264.00   -999.99  -999.99  -999.99      0.0000      0.00         4.2013E-12    -53.67  0.0000E+00      0.00
   90.00    265.00   -999.99  -999.99  -999.99      0.0000      0.00         4.1862E-12    -53.39  0.0000E+00      0.00
   90.00    266.00   -999.99  -999.99  -999.99      0.0000      0.00         4.1738E-12    -53.16  0.0000E+00      0.00
   90.00    267.00   -999.99  -999.99  -999.99      0.0000      0.00         4.1642E-12    -52.98  0.0000E+00      0.00
   90.00    268.00   -999.99  -999.99  -999.99      0.0000      0.00         4.1573E-12    -52.86  0.0000E+00      0.00
   90.00    269.00   -999.99  -999.99  -999.99      0.0000      0.00         4.1532E-12    -52.78  0.0000E+00      0.00
   90.00    270.00   -999.99  -999.99  -999.99      0.0000      0.00         4.1518E-12    -52.75  0.0000E+00      0.00
   90.00    271.00   -999.99  -999.99  -999.99      0.0000      0.00         4.1532E-12    -52.78  0.0000E+00      0.00
   90.00    272.00   -999.99  -999.99  -999.99      0.0000      0.00         4.1573E-12    -52.86  0.0000E+00      0.00
   90.00    273.00   -999.99  -999.99  -999.99      0.0000      0.00         4.1642E-12    -52.98  0.0000E+00      0.00
   90.00    274.00   -999.99  -999.99  -999.99      0.0000      0.00         4.1738E-12    -53.16  0.0000E+00      0.00
   90.00    275.00   -999.99  -999.99  -999.99      0.0000      0.00         4.1862E-12    -53.39  0.0000E+00      0.00
   90.00    276.00   -999.99  -999.99  -999.99      0.0000      0.00         4.2013E-12    -53.67  0.0000E+00      0.00
   90.00    277.00   -999.99  -999.99  -999.99      0.0000      0.00         4.2191E-12    -53.99  0.0000E+00      0.00
   90.00    278.00   -999.99  -999.99  -999.99      0.0000      0.00         4.2397E-12    -54.37  0.0000E+00      0.00
   90.00    279.00   -999.99  -999.99  -999.99      0.0000      0.00         4.2629E-12    -54.79  0.0000E+00      0.00
   90.00    280.00   -999.99  -999.99  -999.99      0.0000      0.00         4.2889E-12    -55.26  0.0000E+00      0.00
   90.00    281.00   -999.99  -999.99  -999.99      0.0000      0.00         4.3174E-12    -55.77  0.0000E+00      0.00
   90.00    282.00   -999.99  -999.99  -999.99      0.0000      0.00         4.3486E-12    -56.32  0.0000E+00      0.00
   90.00    283.00   -999.99  -999.99  -999.99      0.0000      0.00         4.3824E-12    -56.92  0.0000E+00      0.00
   90.00    284.00   -999.99  -999.99  -999.99      0.0000      0.00         4.4187E-12    -57.56  0.0000E+00      0.00
   90.00    285.00   -999.99  -999.99  -999.99      0.0000      0.00         4.4576E-12    -58.24  0.0000E+00      0.00
   90.00    286.00   -999.99  -999.99  -999.99      0.0000      0.00         4.4989E-12    -58.96  0.0000E+00      0.00
   90.00    287.00   -999.99  -999.99  -999.99      0.0000      0.00         4.5427E-12    -59.72  0.0000E+00      0.00
   90.00    288.00   -999.99  -999.99  -999.99      0.0000      0.00         4.5887E-12    -60.51  0.0000E+00      0.00
   90.00    289.00   -999.99  -999.99  -999.99      0.0000      0.00         4.6372E-12    -61.34  0.0000E+00      0.00
   90.00    290.00   -999.99  -999.99  -999.99      0.0000      0.00         4.6878E-12    -62.20  0.0000E+00      0.00
   90.00    291.00   -999.99  -999.99  -999.99      0.0000      0.00         4.7406E-12    -63.10  0.0000E+00      0.00
   90.00    292.00   -999.99  -999.99  -999.99      0.0000      0.00         4.7955E-12    -64.02  0.0000E+00      0.00
   90.00    293.00   -999.99  -999.99  -999.99      0.0000      0.00         4.8523E-12    -64.97  0.0000E+00      0.00
   90.00    294.00   -999.99  -999.99  -999.99      0.0000      0.00         4.9110E-12    -65.96  0.0000E+00      0.00
   90.00    295.00   -999.99  -999.99  -999.99      0.0000      0.00         4.9714E-12    -66.97  0.0000E+00      0.00
   90.00    296.00   -999.99  -999.99  -999.99      0.0000      0.00         5.0335E-12    -68.00  0.0000E+00      0.00
   90.00    297.00   -999.99  -999.99  -999.99      0.0000      0.00         5.0971E-12    -69.07  0.0000E+00      0.00
   90.00    298.00   -999.99  -999.99  -999.99      0.0000      0.00         5.1620E-12    -70.15  0.0000E+00      0.00
   90.00    299.00   -999.99  -999.99  -999.99      0.0000      0.00         5.2282E-12    -71.26  0.0000E+00      0.00
   90.00    300.00   -999.99  -999.99  -999.99      0.0000      0.00         5.2955E-12    -72.39  0.0000E+00      0.00
   90.00    301.00   -999.99  -999.99  -999.99      0.0000      0.00         5.3637E-12    -73.55  0.0000E+00      0.00
   90.00    302.00   -999.99  -999.99  -999.99      0.0000      0.00         5.4327E-12    -74.73  0.0000E+00      0.00
   90.00    303.00   -999.99  -999.99  -999.99      0.0000      0.00         5.5022E-12    -75.92  0.0000E+00      0.00
   90.00    304.00   -999.99  -999.99  -999.99      0.0000      0.00         5.5722E-12    -77.14  0.0000E+00      0.00
   90.00    305.00   -999.99  -999.99  -999.99      0.0000      0.00         5.6424E-12    -78.38  0.0000E+00      0.00
   90.00    306.00   -999.99  -999.99  -999.99      0.0000      0.00         5.7126E-12    -79.63  0.0000E+00      0.00
   90.00    307.00   -999.99  -999.99  -999.99      0.0000      0.00         5.7827E-12    -80.91  0.0000E+00      0.00
   90.00    308.00   -999.99  -999.99  -999.99      0.0000      0.00         5.8523E-12    -82.21  0.0000E+00      0.00
   90.00    309.00   -999.99  -999.99  -999.99      0.0000      0.00         5.9215E-12    -83.52  0.0000E+00      0.00
   90.00    310.00   -999.99  -999.99  -999.99      0.0000      0.00         5.9899E-12    -84.85  0.0000E+00      0.00
   90.00    311.00   -999.99  -999.99  -999.99      0.0000      0.00         6.0572E-12    -86.21  0.0000E+00      0.00
   90.00    312.00   -999.99  -999.99  -999.99      0.0000      0.00         6.1234E-12    -87.58  0.0000E+00      0.00
   90.00    313.00   -999.99  -999.99  -999.99      0.0000      0.00         6.1882E-12    -88.97  0.0000E+00      0.00
   90.00    314.00   -999.99  -999.99  -999.99      0.0000      0.00         6.2514E-12    -90.38  0.0000E+00      0.00
   90.00    315.00   -999.99  -999.99  -999.99      0.0000      0.00         6.3128E-12    -91.81  0.0000E+00      0.00
   90.00    316.00   -999.99  -999.99  -999.99      0.0000      0.00         6.3722E-12    -93.25  0.0000E+00      0.00
   90.00    317.00   -999.99  -999.99  -999.99      0.0000      0.00         6.4293E-12    -94.72  0.0000E+00      0.00
   90.00    318.00   -999.99  -999.99  -999.99      0.0000      0.00         6.4841E-12    -96.21  0.0000E+00      0.00
   90.00    319.00   -999.99  -999.99  -999.99      0.0000      0.00         6.5362E-12    -97.72  0.0000E+00      0.00
   90.00    320.00   -999.99  -999.99  -999.99      0.0000      0.00         6.5856E-12    -99.25  0.0000E+00      0.00
   90.00    321.00   -999.99  -999.99  -999.99      0.0000      0.00         6.6320E-12   -100.80  0.0000E+00      0.00
   90.00    322.00   -999.99  -999.99  -999.99      0.0000      0.00         6.6753E-12   -102.37  0.0000E+00      0.00
   90.00    323.00   -999.99  -999.99  -999.99      0.0000      0.00         6.7153E-12   -103.97  0.0000E+00      0.00
   90.00    324.00   -999.99  -999.99  -999.99      0.0000      0.00         6.7520E-12   -105.59  0.0000E+00      0.00
   90.00    325.00   -999.99  -999.99  -999.99      0.0000      0.00         6.7851E-12   -107.23  0.0000E+00      0.00
   90.00    326.00   -999.99  -999.99  -999.99      0.0000      0.00         6.8146E-12   -108.90  0.0000E+00      0.00
   90.00    327.00   -999.99  -999.99  -999.99      0.0000      0.00         6.8404E-12   -110.59  0.0000E+00      0.00
   90.00    328.00   -999.99  -999.99  -999.99      0.0000      0.00         6.8623E-12   -112.30  0.0000E+00      0.00
   90.00    329.00   -999.99  -999.99  -999.99      0.0000      0.00         6.8804E-12   -114.04  0.0000E+00      0.00
   90.00    330.00   -999.99  -999.99  -999.99      0.0000      0.00         6.8946E-12   -115.81  0.0000E+00      0.00
   90.00    331.00   -999.99  -999.99  -999.99      0.0000      0.00         6.9049E-12   -117.61  0.0000E+00      0.00
   90.00    332.00   -999.99  -999.99  -999.99      0.0000      0.00         6.9111E-12   -119.43  0.0000E+00      0.00
   90.00    333.00   -999.99  -999.99  -999.99      0.0000      0.00         6.9135E-12   -121.28  0.0000E+00      0.00
   90.00    334.00   -999.99  -999.99  -999.99      0.0000      0.00         6.9119E-12   -123.16  0.0000E+00      0.00
   90.00    335.00   -999.99  -999.99  -999.99      0.0000      0.00         6.9065E-12   -125.06  0.0000E+00      0.00
   90.00    336.00   -999.99  -999.99  -999.99      0.0000      0.00         6.8972E-12   -127.00  0.0000E+00      0.00
   90.00    337.00   -999.99  -999.99  -999.99      0.0000      0.00         6.8842E-12   -128.97  0.0000E+00      0.00
   90.00    338.00   -999.99  -999.99  -999.99      0.0000      0.00         6.8675E-12   -130.96  0.0000E+00      0.00
   90.00    339.00   -999.99  -999.99  -999.99      0.0000      0.00         6.8473E-12   -132.98  0.0000E+00      0.00
   90.00    340.00   -999.99  -999.99  -999.99      0.0000      0.00         6.8237E-12   -135.04  0.0000E+00      0.00
   90.00    341.00   -999.99  -999.99  -999.99      0.0000      0.00         6.7967E-12   -137.12  0.0000E+00      0.00
   90.00    342.00   -999.99  -999.99  -999.99      0.0000      0.00         6.7666E-12   -139.24  0.0000E+00      0.00
   90.00    343.00   -999.99  -999.99  -999.99      0.0000      0.00         6.7334E-12   -141.38  0.0000E+00      0.00
   90.00    344.00   -999.99  -999.99  -999.99      0.0000      0.00         6.6974E-12   -143.55  0.0000E+00      0.00
   90.00    345.00   -999.99  -999.99  -999.99      0.0000      0.00         6.6586E-12   -145.75  0.0000E+00      0.00
   90.00    346.00   -999.99  -999.99  -999.99      0.0000      0.00         6.6172E-12   -147.98  0.0000E+00      0.00
   90.00    347.00   -999.99  -999.99  -999.99      0.0000      0.00         6.5733E-12   -150.24  0.0000E+00      0.00
   90.00    348.00   -999.99  -999.99  -999.99      0.0000      0.00         6.5272E-12   -152.52  0.0000E+00      0.00
   90.00    349.00   -999.99  -999.99  -999.99      0.0000      0.00         6.4789E-12   -154.83  0.0000E+00      0.00
   90.00    350.00   -999.99  -999.99  -999.99      0.0000      0.00         6.4286E-12   -157.16  0.0000E+00      0.00
   90.00    351.00   -999.99  -999.99  -999.99      0.0000      0.00         6.3765E-12   -159.52  0.0000E+00      0.00
   90.00    352.00   -999.99  -999.99  -999.99      0.0000      0.00         6.3225E-12   -161.90  0.0000E+00      0.00
   90.00    353.00   -999.99  -999.99  -999.99      0.0000      0.00         6.2668E-12   -164.30  0.0000E+00      0.00
   90.00    354.00   -999.99  -999.99  -999.99      0.0000      0.00         6.2096E-12   -166.72  0.0000E+00      0.00
   90.00    355.00   -999.99  -999.99  -999.99      0.0000      0.00         6.1508E-12   -169.16  0.0000E+00      0.00
   90.00    356.00   -999.99  -999.99  -999.99      0.0000      0.00         6.0905E-12   -171.62  0.0000E+00      0.00
   90.00    357.00   -999.99  -999.99  -999.99      0.0000      0.00         6.0287E-12   -174.09  0.0000E+00      0.00
   90.00    358.00   -999.99  -999.99  -999.99      0.0000      0.00         5.9655E-12   -176.57  0.0000E+00      0.00
   90.00    359.00   -999.99  -999.99  -999.99      0.0000      0.00         5.9009E-12   -179.07  0.0000E+00      0.00
   90.00    360.00   -999.99  -999.99  -999.99      0.0000      0.00         5.8348E-12    178.43  0.0000E+00      0.00





*****  DATA CARD N0.   7 EN   0     0     0     0  0.00000E+00  0.00000E+00  0.00000E+00  0.00000E+00  0.00000E+00  0.00000E+00

  TOTAL RUN TIME: 150 msec