1



                                 *********************************************

                                    NUMERICAL ELECTROMAGNETICS CODE (NEC-3D)

                                 *********************************************




                                     - - - - COMMENTS - - - -


                         TEST OF PATPLT                                                                




                                 - - - STRUCTURE SPECIFICATION - - -

                                     COORDINATES MUST BE INPUT IN
                                     METERS OR BE SCALED TO METERS
                                     BEFORE STRUCTURE INPUT IS ENDED


  WIRE                                                                               NO. OF    FIRST  LAST     TAG
  NO.        X1         Y1         Z1          X2         Y2         Z2      RADIUS   SEG.     SEG.   SEG.     NO.
     1   -0.50000    0.00000    0.00000     0.50000    0.00000    0.00000    0.00100      7        1     7       2
     2    0.50000    0.00000    0.00000     0.50000    0.30000    0.00000    0.00100      5        8    12       3
      STRUCTURE SCALED BY FACTOR 300.00000

   TOTAL SEGMENTS USED=   12     NO. SEG. IN A SYMMETRIC CELL=   12     SYMMETRY FLAG=  0


         - MULTIPLE WIRE JUNCTIONS -
 JUNCTION    SEGMENTS  (- FOR END 1, + FOR END 2)
  NONE




                                 - - - - SEGMENTATION DATA - - - -

                                        COORDINATES IN METERS

                         I+ AND I- INDICATE THE SEGMENTS BEFORE AND AFTER I


  SEG.   COORDINATES OF SEG. CENTER     SEG.     ORIENTATION ANGLES    WIRE    CONNECTION DATA   TAG
  NO.       X         Y         Z       LENGTH     ALPHA     BETA      RADIUS    I-   I    I+    NO.
     1-128.57143   0.00000   0.00000  42.85714    0.00000   0.00000   0.30000     0    1    2      2
     2 -85.71429   0.00000   0.00000  42.85714    0.00000   0.00000   0.30000     1    2    3      2
     3 -42.85714   0.00000   0.00000  42.85714    0.00000   0.00000   0.30000     2    3    4      2
     4   0.00000   0.00000   0.00000  42.85714    0.00000   0.00000   0.30000     3    4    5      2
     5  42.85714   0.00000   0.00000  42.85714    0.00000   0.00000   0.30000     4    5    6      2
     6  85.71429   0.00000   0.00000  42.85714    0.00000   0.00000   0.30000     5    6    7      2
     7 128.57143   0.00000   0.00000  42.85714    0.00000   0.00000   0.30000     6    7    8      2
     8 150.00000   9.00000   0.00000  18.00000    0.00000  90.00000   0.30000     7    8    9      3
     9 150.00000  27.00000   0.00000  18.00000    0.00000  90.00000   0.30000     8    9   10      3
    10 150.00000  45.00000   0.00000  18.00000    0.00000  90.00000   0.30000     9   10   11      3
    11 150.00000  63.00000   0.00000  18.00000    0.00000  90.00000   0.30000    10   11   12      3
    12 150.00000  81.00000   0.00000  18.00000    0.00000  90.00000   0.30000    11   12    0      3






 ***** DATA CARD NO.  1   EX   0     2     4     0  1.00000E+00  0.00000E+00  0.00000E+00  0.00000E+00  0.00000E+00  0.00000E+00
 ***** DATA CARD NO.  2   FR   0     1     0     0  5.00000E-01  2.50000E-01  0.00000E+00  0.00000E+00  0.00000E+00  0.00000E+00
 ***** DATA CARD NO.  3   RP   0    19     2  1000  0.00000E+00  0.00000E+00  5.00000E+00  9.00000E+01  0.00000E+00  0.00000E+00




                                 - - - - - - FREQUENCY - - - - - -

                                    FREQUENCY= 5.0000E-01 MHZ
                                    WAVELENGTH= 5.9960E+02 METERS



                               - - - STRUCTURE IMPEDANCE LOADING - - -

                                   THIS STRUCTURE IS NOT LOADED



                                  - - - ANTENNA ENVIRONMENT - - -

                                            FREE SPACE




                    APPROXIMATE INTEGRATION EMPLOYED FOR SEGMENTS MORE THAN 599.600 METERS APART



                                - - - MATRIX TIMING - - -

                        FILL=    0.500 SEC.,  FACTOR=    0.020 SEC.



                                          - - - ANTENNA INPUT PARAMETERS - - -

   TAG   SEG.    VOLTAGE (VOLTS)         CURRENT (AMPS)         IMPEDANCE (OHMS)        ADMITTANCE (MHOS)      POWER
   NO.   NO.    REAL        IMAG.       REAL        IMAG.       REAL        IMAG.       REAL        IMAG.     (WATTS)
     2     4 1.00000E+00 0.00000E+00 8.04295E-04-1.77324E-03 2.12143E+02 4.67716E+02 8.04295E-04-1.77324E-03 4.02147E-04



                             - - - CURRENTS AND LOCATION - - -

                     LENGTHS NORMALIZED BY WAVELENGTH (OR 2.*PI/CABS(K))


  SEG.  TAG    COORD. OF SEG. CENTER     SEG.            - - - CURRENT (AMPS) - - -
  NO.   NO.     X        Y        Z      LENGTH     REAL        IMAG.       MAG.        PHASE
     1    2  -0.2144   0.0000   0.0000  0.07148   1.4653E-04 -4.9354E-04  5.1483E-04  -73.464
     2    2  -0.1430   0.0000   0.0000  0.07148   4.1425E-04 -1.2352E-03  1.3028E-03  -71.461
     3    2  -0.0715   0.0000   0.0000  0.07148   6.4347E-04 -1.6320E-03  1.7543E-03  -68.481
     4    2   0.0000   0.0000   0.0000  0.07148   8.0429E-04 -1.7732E-03  1.9471E-03  -65.602
     5    2   0.0715   0.0000   0.0000  0.07148   8.7155E-04 -2.6646E-03  2.8035E-03  -71.888
     6    2   0.1430   0.0000   0.0000  0.07148   8.3558E-04 -3.1202E-03  3.2302E-03  -75.008
     7    2   0.2144   0.0000   0.0000  0.07148   7.0612E-04 -2.9345E-03  3.0183E-03  -76.470
     8    3   0.2502   0.0150   0.0000  0.03002   5.7205E-04 -2.4560E-03  2.5217E-03  -76.888
     9    3   0.2502   0.0450   0.0000  0.03002   4.7263E-04 -2.0548E-03  2.1084E-03  -77.046
    10    3   0.2502   0.0751   0.0000  0.03002   3.5788E-04 -1.5757E-03  1.6159E-03  -77.204
    11    3   0.2502   0.1051   0.0000  0.03002   2.3006E-04 -1.0261E-03  1.0516E-03  -77.363
    12    3   0.2502   0.1351   0.0000  0.03002   8.6565E-05 -3.9125E-04  4.0072E-04  -77.524



                                        - - - POWER BUDGET - - -

                                           INPUT POWER   = 4.0215E-04 WATTS
                                           RADIATED POWER= 4.0215E-04 WATTS
                                           STRUCTURE LOSS= 0.0000E+00 WATTS
                                           NETWORK LOSS  = 0.0000E+00 WATTS
                                           EFFICIENCY    = 100.00 PERCENT



                                                - - - RADIATION PATTERNS - - -

  - - ANGLES - -           - POWER GAINS -       - - - POLARIZATION - - -    - - - E(THETA) - - -    - - - E(PHI) - - -
  THETA     PHI        VERT.   HOR.    TOTAL      AXIAL     TILT   SENSE     MAGNITUDE    PHASE      MAGNITUDE    PHASE 
 DEGREES  DEGREES       DB      DB      DB        RATIO     DEG.              VOLTS/M    DEGREES      VOLTS/M    DEGREES
    0.00     0.00       1.97  -11.07    2.18    0.01780    12.53  RIGHT     1.94739E-01  -162.28    4.34111E-02  -167.09
    5.00     0.00       1.94  -11.07    2.15    0.00407    12.60  LEFT      1.94119E-01  -160.34    4.34111E-02  -159.24
   10.00     0.00       1.81  -11.07    2.02    0.02611    12.71  LEFT      1.91150E-01  -158.39    4.34111E-02  -151.45
   15.00     0.00       1.57  -11.07    1.80    0.04869    12.86  LEFT      1.85942E-01  -156.46    4.34111E-02  -143.78
   20.00     0.00       1.22  -11.07    1.47    0.07222    13.06  LEFT      1.78677E-01  -154.54    4.34111E-02  -136.29
   25.00     0.00       0.77  -11.07    1.04    0.09716    13.33  LEFT      1.69602E-01  -152.65    4.34111E-02  -129.03
   30.00     0.00       0.21  -11.07    0.52    0.12406    13.68  LEFT      1.59001E-01  -150.80    4.34111E-02  -122.06
   35.00     0.00      -0.47  -11.07   -0.10    0.15357    14.15  LEFT      1.47183E-01  -149.00    4.34111E-02  -115.43
   40.00     0.00      -1.25  -11.07   -0.82    0.18656    14.79  LEFT      1.34455E-01  -147.27    4.34111E-02  -109.20
   45.00     0.00      -2.16  -11.07   -1.63    0.22411    15.68  LEFT      1.21106E-01  -145.61    4.34111E-02  -103.41
   50.00     0.00      -3.20  -11.07   -2.55    0.26765    16.95  LEFT      1.07392E-01  -144.06    4.34111E-02   -98.10
   55.00     0.00      -4.40  -11.07   -3.56    0.31898    18.83  LEFT      9.35270E-02  -142.62    4.34111E-02   -93.32
   60.00     0.00      -5.80  -11.07   -4.67    0.38000    21.76  LEFT      7.96744E-02  -141.31    4.34111E-02   -89.10
   65.00     0.00      -7.44  -11.07   -5.88    0.45108    26.66  LEFT      6.59465E-02  -140.17    4.34111E-02   -85.47
   70.00     0.00      -9.43  -11.07   -7.17    0.52320    35.47  LEFT      5.24065E-02  -139.20    4.34111E-02   -82.46
   75.00     0.00     -11.98  -11.07   -8.49    0.55216    50.68  LEFT      3.90733E-02  -138.42    4.34111E-02   -80.10
   80.00     0.00     -15.55  -11.07   -9.75    0.45902    68.33  LEFT      2.59289E-02  -137.85    4.34111E-02   -78.40
   85.00     0.00     -21.59  -11.07  -10.70    0.25229    80.99  LEFT      1.29265E-02  -137.51    4.34111E-02   -77.37
   90.00     0.00    -999.99  -11.07  -11.07    0.00000   -90.00  LINEAR    7.55188E-13    42.61    4.34111E-02   -77.03
    0.00    90.00     -11.07    1.97    2.18    0.01780   -77.47  RIGHT     4.34111E-02  -167.09    1.94739E-01    17.72
    5.00    90.00     -11.10    1.97    2.18    0.01156   -77.50  RIGHT     4.32402E-02  -165.41    1.94739E-01    17.72
   10.00    90.00     -11.21    1.97    2.17    0.00536   -77.63  RIGHT     4.27236E-02  -163.75    1.94739E-01    17.72
   15.00    90.00     -11.38    1.97    2.16    0.00061   -77.87  LEFT      4.18668E-02  -162.11    1.94739E-01    17.72
   20.00    90.00     -11.63    1.97    2.15    0.00618   -78.21  LEFT      4.06790E-02  -160.52    1.94739E-01    17.72
   25.00    90.00     -11.96    1.97    2.14    0.01119   -78.64  LEFT      3.91729E-02  -158.97    1.94739E-01    17.72
   30.00    90.00     -12.37    1.97    2.12    0.01550   -79.17  LEFT      3.73640E-02  -157.48    1.94739E-01    17.72
   35.00    90.00     -12.87    1.97    2.11    0.01899   -79.79  LEFT      3.52706E-02  -156.07    1.94739E-01    17.72
   40.00    90.00     -13.48    1.97    2.09    0.02157   -80.48  LEFT      3.29129E-02  -154.74    1.94739E-01    17.72
   45.00    90.00     -14.19    1.97    2.07    0.02319   -81.25  LEFT      3.03129E-02  -153.51    1.94739E-01    17.72
   50.00    90.00     -15.04    1.97    2.05    0.02382   -82.08  LEFT      2.74941E-02  -152.38    1.94739E-01    17.72
   55.00    90.00     -16.05    1.97    2.03    0.02345   -82.96  LEFT      2.44805E-02  -151.37    1.94739E-01    17.72
   60.00    90.00     -17.26    1.97    2.02    0.02214   -83.89  LEFT      2.12967E-02  -150.47    1.94739E-01    17.72
   65.00    90.00     -18.73    1.97    2.00    0.01994   -84.85  LEFT      1.79675E-02  -149.70    1.94739E-01    17.72
   70.00    90.00     -20.58    1.97    1.99    0.01696   -85.85  LEFT      1.45177E-02  -149.06    1.94739E-01    17.72
   75.00    90.00     -23.02    1.97    1.98    0.01332   -86.87  LEFT      1.09719E-02  -148.56    1.94739E-01    17.72
   80.00    90.00     -26.49    1.97    1.97    0.00918   -87.90  LEFT      7.35426E-03  -148.20    1.94739E-01    17.72
   85.00    90.00     -32.48    1.97    1.97    0.00468   -88.95  LEFT      3.68901E-03  -147.99    1.94739E-01    17.72
   90.00    90.00    -999.99    1.97    1.97    0.00000    90.00  LINEAR    2.15967E-13    32.09    1.94739E-01    17.72






 ***** DATA CARD NO.  4   RP   0     1    72  1000  9.00000E+01  0.00000E+00  0.00000E+00  5.00000E+00  0.00000E+00  0.00000E+00



                                                - - - RADIATION PATTERNS - - -

  - - ANGLES - -           - POWER GAINS -       - - - POLARIZATION - - -    - - - E(THETA) - - -    - - - E(PHI) - - -
  THETA     PHI        VERT.   HOR.    TOTAL      AXIAL     TILT   SENSE     MAGNITUDE    PHASE      MAGNITUDE    PHASE 
 DEGREES  DEGREES       DB      DB      DB        RATIO     DEG.              VOLTS/M    DEGREES      VOLTS/M    DEGREES
   90.00     0.00    -999.99  -11.07  -11.07    0.00000   -90.00  LINEAR    7.55188E-13    42.61    4.34111E-02   -77.03
   90.00     5.00    -999.99  -12.04  -12.04    0.00000   -90.00  LINEAR    7.63337E-13    43.77    3.88422E-02   -58.64
   90.00    10.00    -999.99  -12.11  -12.11    0.00000    90.00  LINEAR    7.68791E-13    44.70    3.85307E-02   -38.30
   90.00    15.00    -999.99  -11.25  -11.25    0.00000    90.00  LINEAR    7.71617E-13    45.38    4.25357E-02   -19.98
   90.00    20.00    -999.99   -9.87   -9.87    0.00000    90.00  LINEAR    7.71712E-13    45.82    4.98605E-02    -5.99
   90.00    25.00    -999.99   -8.35   -8.35    0.00000    90.00  LINEAR    7.68801E-13    46.03    5.93595E-02     3.88
   90.00    30.00    -999.99   -6.89   -6.89    0.00000    90.00  LINEAR    7.62448E-13    46.00    7.02353E-02    10.72
   90.00    35.00    -999.99   -5.55   -5.55    0.00000    90.00  LINEAR    7.52082E-13    45.75    8.20035E-02    15.44
   90.00    40.00    -999.99   -4.33   -4.33    0.00000    90.00  LINEAR    7.37027E-13    45.31    9.43510E-02    18.68
   90.00    45.00    -999.99   -3.23   -3.23    0.00000    90.00  LINEAR    7.16546E-13    44.67    1.07037E-01    20.84
   90.00    50.00    -999.99   -2.25   -2.25    0.00000    90.00  LINEAR    6.89898E-13    43.86    1.19839E-01    22.21
   90.00    55.00    -999.99   -1.38   -1.38    0.00000    90.00  LINEAR    6.56402E-13    42.89    1.32523E-01    22.95
   90.00    60.00    -999.99   -0.61   -0.61    0.00000    90.00  LINEAR    6.15510E-13    41.77    1.44832E-01    23.19
   90.00    65.00    -999.99    0.07    0.07    0.00000    90.00  LINEAR    5.66872E-13    40.51    1.56488E-01    23.03
   90.00    70.00    -999.99    0.64    0.64    0.00000    90.00  LINEAR    5.10405E-13    39.11    1.67194E-01    22.52
   90.00    75.00    -999.99    1.12    1.12    0.00000    90.00  LINEAR    4.46336E-13    37.58    1.76648E-01    21.70
   90.00    80.00    -999.99    1.50    1.50    0.00000    90.00  LINEAR    3.75239E-13    35.92    1.84558E-01    20.61
   90.00    85.00    -999.99    1.78    1.78    0.00000    90.00  LINEAR    2.98035E-13    34.10    1.90661E-01    19.28
   90.00    90.00    -999.99    1.97    1.97    0.00000    90.00  LINEAR    2.15967E-13    32.09    1.94739E-01    17.72
   90.00    95.00    -999.99    2.05    2.05    0.00000    90.00  LINEAR    1.30551E-13    29.69    1.96638E-01    15.93
   90.00   100.00    -999.99    2.03    2.03    0.00000    90.00  LINEAR    4.35318E-14    25.26    1.96275E-01    13.92
   90.00   105.00    -999.99    1.92    1.92    0.00000   -90.00  LINEAR    4.35744E-14  -149.58    1.93652E-01    11.71
   90.00   110.00    -999.99    1.70    1.70    0.00000   -90.00  LINEAR    1.28518E-13  -154.18    1.88854E-01     9.27
   90.00   115.00    -999.99    1.38    1.38    0.00000   -90.00  LINEAR    2.09912E-13  -156.93    1.82042E-01     6.62
   90.00   120.00    -999.99    0.96    0.96    0.00000   -90.00  LINEAR    2.86268E-13  -159.47    1.73445E-01     3.74
   90.00   125.00    -999.99    0.44    0.44    0.00000   -90.00  LINEAR    3.56421E-13  -161.99    1.63346E-01     0.61
   90.00   130.00    -999.99   -0.18   -0.18    0.00000   -90.00  LINEAR    4.19548E-13  -164.51    1.52061E-01    -2.78
   90.00   135.00    -999.99   -0.90   -0.90    0.00000   -90.00  LINEAR    4.75187E-13  -167.03    1.39921E-01    -6.46
   90.00   140.00    -999.99   -1.73   -1.73    0.00000   -90.00  LINEAR    5.23225E-13  -169.55    1.27255E-01   -10.49
   90.00   145.00    -999.99   -2.66   -2.66    0.00000   -90.00  LINEAR    5.63861E-13  -172.05    1.14380E-01   -14.93
   90.00   150.00    -999.99   -3.69   -3.69    0.00000   -90.00  LINEAR    5.97558E-13  -174.50    1.01589E-01   -19.90
   90.00   155.00    -999.99   -4.82   -4.82    0.00000   -90.00  LINEAR    6.24968E-13  -176.89    8.91545E-02   -25.54
   90.00   160.00    -999.99   -6.05   -6.05    0.00000   -90.00  LINEAR    6.46863E-13  -179.17    7.73395E-02   -32.13
   90.00   165.00    -999.99   -7.38   -7.38    0.00000   -90.00  LINEAR    6.64062E-13   178.67    6.64282E-02   -40.04
   90.00   170.00    -999.99   -8.74   -8.74    0.00000   -90.00  LINEAR    6.77370E-13   176.67    5.67754E-02   -49.79
   90.00   175.00    -999.99  -10.04  -10.04    0.00000   -90.00  LINEAR    6.87515E-13   174.85    4.88764E-02   -62.04
   90.00   180.00    -999.99  -11.07  -11.07    0.00000   -90.00  LINEAR    6.95111E-13   173.24    4.34111E-02   -77.15
   90.00   185.00    -999.99  -11.54  -11.54    0.00000   -90.00  LINEAR    7.00617E-13   171.86    4.11109E-02   -94.45
   90.00   190.00    -999.99  -11.29  -11.29    0.00000    90.00  LINEAR    7.04323E-13   170.71    4.23388E-02  -111.77
   90.00   195.00    -999.99  -10.42  -10.42    0.00000    90.00  LINEAR    7.06328E-13   169.80    4.67686E-02  -126.75
   90.00   200.00    -999.99   -9.23   -9.23    0.00000    90.00  LINEAR    7.06542E-13   169.14    5.36484E-02  -138.44
   90.00   205.00    -999.99   -7.94   -7.94    0.00000    90.00  LINEAR    7.04685E-13   168.71    6.22600E-02  -147.12
   90.00   210.00    -999.99   -6.66   -6.66    0.00000    90.00  LINEAR    7.00298E-13   168.50    7.20958E-02  -153.45
   90.00   215.00    -999.99   -5.46   -5.46    0.00000    90.00  LINEAR    6.92769E-13   168.51    8.28247E-02  -158.04
   90.00   220.00    -999.99   -4.34   -4.34    0.00000    90.00  LINEAR    6.81362E-13   168.70    9.42138E-02  -161.33
   90.00   225.00    -999.99   -3.31   -3.31    0.00000    90.00  LINEAR    6.65263E-13   169.07    1.06069E-01  -163.64
   90.00   230.00    -999.99   -2.37   -2.37    0.00000    90.00  LINEAR    6.43632E-13   169.58    1.18198E-01  -165.20
   90.00   235.00    -999.99   -1.52   -1.52    0.00000    90.00  LINEAR    6.15672E-13   170.22    1.30388E-01  -166.15
   90.00   240.00    -999.99   -0.75   -0.75    0.00000    90.00  LINEAR    5.80693E-13   170.96    1.42400E-01  -166.61
   90.00   245.00    -999.99   -0.07   -0.07    0.00000    90.00  LINEAR    5.38193E-13   171.77    1.53963E-01  -166.65
   90.00   250.00    -999.99    0.52    0.52    0.00000    90.00  LINEAR    4.87917E-13   172.61    1.64785E-01  -166.35
   90.00   255.00    -999.99    1.02    1.02    0.00000    90.00  LINEAR    4.29919E-13   173.41    1.74562E-01  -165.73
   90.00   260.00    -999.99    1.43    1.43    0.00000    90.00  LINEAR    3.64608E-13   174.08    1.82994E-01  -164.83
   90.00   265.00    -999.99    1.74    1.74    0.00000    90.00  LINEAR    2.92771E-13   174.37    1.89800E-01  -163.68
   90.00   270.00    -999.99    1.97    1.97    0.00000    90.00  LINEAR    2.15633E-13   173.74    1.94739E-01  -162.28
   90.00   275.00    -999.99    2.09    2.09    0.00000    90.00  LINEAR    1.35111E-13   170.22    1.97625E-01  -160.67
   90.00   280.00    -999.99    2.13    2.13    0.00000    90.00  LINEAR    5.67869E-14   150.84    1.98340E-01  -158.83
   90.00   285.00    -999.99    2.06    2.06    0.00000   -90.00  LINEAR    5.13059E-14    48.03    1.96843E-01  -156.78
   90.00   290.00    -999.99    1.90    1.90    0.00000   -90.00  LINEAR    1.28630E-13    25.10    1.93174E-01  -154.52
   90.00   295.00    -999.99    1.64    1.64    0.00000   -90.00  LINEAR    2.09494E-13    21.50    1.87448E-01  -152.06
   90.00   300.00    -999.99    1.28    1.28    0.00000   -90.00  LINEAR    2.87411E-13    21.30    1.79851E-01  -149.38
   90.00   305.00    -999.99    0.82    0.82    0.00000   -90.00  LINEAR    3.60488E-13    22.28    1.70621E-01  -146.49
   90.00   310.00    -999.99    0.26    0.26    0.00000   -90.00  LINEAR    4.27602E-13    23.82    1.60036E-01  -143.37
   90.00   315.00    -999.99   -0.39   -0.39    0.00000   -90.00  LINEAR    4.88059E-13    25.66    1.48394E-01  -140.00
   90.00   320.00    -999.99   -1.15   -1.15    0.00000   -90.00  LINEAR    5.41533E-13    27.67    1.35998E-01  -136.37
   90.00   325.00    -999.99   -2.01   -2.01    0.00000   -90.00  LINEAR    5.88011E-13    29.76    1.23140E-01  -132.41
   90.00   330.00    -999.99   -2.99   -2.99    0.00000   -90.00  LINEAR    6.27740E-13    31.87    1.10093E-01  -128.04
   90.00   335.00    -999.99   -4.08   -4.08    0.00000   -90.00  LINEAR    6.61168E-13    33.96    9.71116E-02  -123.14
   90.00   340.00    -999.99   -5.29   -5.29    0.00000   -90.00  LINEAR    6.88876E-13    35.98    8.44369E-02  -117.50
   90.00   345.00    -999.99   -6.64   -6.64    0.00000   -90.00  LINEAR    7.11510E-13    37.88    7.23232E-02  -110.76
   90.00   350.00    -999.99   -8.10   -8.10    0.00000   -90.00  LINEAR    7.29721E-13    39.64    6.10865E-02  -102.37
   90.00   355.00    -999.99   -9.64   -9.64    0.00000   -90.00  LINEAR    7.44110E-13    41.23    5.11961E-02   -91.48






 ***** DATA CARD NO.  5   FR   0     1     0     0  7.50000E-01  2.50000E-01  0.00000E+00  0.00000E+00  0.00000E+00  0.00000E+00
 ***** DATA CARD NO.  6   RP   0    19     2  1000  0.00000E+00  0.00000E+00  5.00000E+00  9.00000E+01  0.00000E+00  0.00000E+00




                                 - - - - - - FREQUENCY - - - - - -

                                    FREQUENCY= 7.5000E-01 MHZ
                                    WAVELENGTH= 3.9973E+02 METERS



                               - - - STRUCTURE IMPEDANCE LOADING - - -

                                   THIS STRUCTURE IS NOT LOADED



                                  - - - ANTENNA ENVIRONMENT - - -

                                            FREE SPACE




                    APPROXIMATE INTEGRATION EMPLOYED FOR SEGMENTS MORE THAN 399.733 METERS APART



                                - - - MATRIX TIMING - - -

                        FILL=    0.500 SEC.,  FACTOR=    0.020 SEC.



                                          - - - ANTENNA INPUT PARAMETERS - - -

   TAG   SEG.    VOLTAGE (VOLTS)         CURRENT (AMPS)         IMPEDANCE (OHMS)        ADMITTANCE (MHOS)      POWER
   NO.   NO.    REAL        IMAG.       REAL        IMAG.       REAL        IMAG.       REAL        IMAG.     (WATTS)
     2     4 1.00000E+00 0.00000E+00 3.86913E-03 2.74068E-03 1.72103E+02-1.21908E+02 3.86913E-03 2.74068E-03 1.93456E-03



                             - - - CURRENTS AND LOCATION - - -

                     LENGTHS NORMALIZED BY WAVELENGTH (OR 2.*PI/CABS(K))


  SEG.  TAG    COORD. OF SEG. CENTER     SEG.            - - - CURRENT (AMPS) - - -
  NO.   NO.     X        Y        Z      LENGTH     REAL        IMAG.       MAG.        PHASE
     1    2  -0.3216   0.0000   0.0000  0.10721   2.4584E-03  1.1760E-03  2.7251E-03   25.564
     2    2  -0.2144   0.0000   0.0000  0.10721   5.6226E-03  2.9179E-03  6.3346E-03   27.428
     3    2  -0.1072   0.0000   0.0000  0.10721   6.0862E-03  3.5804E-03  7.0612E-03   30.467
     4    2   0.0000   0.0000   0.0000  0.10721   3.8691E-03  2.7407E-03  4.7415E-03   35.312
     5    2   0.1072   0.0000   0.0000  0.10721  -1.0015E-05 -7.6222E-04  7.6228E-04  -90.753
     6    2   0.2144   0.0000   0.0000  0.10721  -3.8640E-03 -4.0351E-03  5.5868E-03 -133.759
     7    2   0.3216   0.0000   0.0000  0.10721  -6.0564E-03 -5.6003E-03  8.2488E-03 -137.240
     8    3   0.3753   0.0225   0.0000  0.04503  -6.0760E-03 -5.3712E-03  8.1097E-03 -138.523
     9    3   0.3753   0.0675   0.0000  0.04503  -5.4560E-03 -4.7317E-03  7.2220E-03 -139.067
    10    3   0.3753   0.1126   0.0000  0.04503  -4.4000E-03 -3.7571E-03  5.7858E-03 -139.506
    11    3   0.3753   0.1576   0.0000  0.04503  -2.9606E-03 -2.4948E-03  3.8716E-03 -139.880
    12    3   0.3753   0.2026   0.0000  0.04503  -1.1477E-03 -9.5597E-04  1.4937E-03 -140.207



                                        - - - POWER BUDGET - - -

                                           INPUT POWER   = 1.9346E-03 WATTS
                                           RADIATED POWER= 1.9346E-03 WATTS
                                           STRUCTURE LOSS= 0.0000E+00 WATTS
                                           NETWORK LOSS  = 0.0000E+00 WATTS
                                           EFFICIENCY    = 100.00 PERCENT



                                                - - - RADIATION PATTERNS - - -

  - - ANGLES - -           - POWER GAINS -       - - - POLARIZATION - - -    - - - E(THETA) - - -    - - - E(PHI) - - -
  THETA     PHI        VERT.   HOR.    TOTAL      AXIAL     TILT   SENSE     MAGNITUDE    PHASE      MAGNITUDE    PHASE 
 DEGREES  DEGREES       DB      DB      DB        RATIO     DEG.              VOLTS/M    DEGREES      VOLTS/M    DEGREES
    0.00     0.00      -6.59   -3.65   -1.87    0.34993   -57.29  RIGHT     1.59549E-01   -90.42    2.23620E-01   130.84
    5.00     0.00      -4.07   -3.65   -0.85    0.67944   -48.76  RIGHT     2.13100E-01  -105.95    2.23620E-01   142.61
   10.00     0.00      -1.97   -3.65    0.28    0.82146    -4.57  RIGHT     2.71525E-01  -113.90    2.23620E-01   154.29
   15.00     0.00      -0.39   -3.65    1.29    0.63674    16.00  RIGHT     3.25513E-01  -118.10    2.23620E-01   165.80
   20.00     0.00       0.72   -3.65    2.07    0.48588    20.59  RIGHT     3.70146E-01  -120.32    2.23620E-01   177.04
   25.00     0.00       1.46   -3.65    2.62    0.37408    22.76  RIGHT     4.02721E-01  -121.43    2.23620E-01  -172.07
   30.00     0.00       1.86   -3.65    2.94    0.28627    24.28  RIGHT     4.22004E-01  -121.86    2.23620E-01  -161.62
   35.00     0.00       1.98   -3.65    3.03    0.21335    25.64  RIGHT     4.27885E-01  -121.87    2.23620E-01  -151.68
   40.00     0.00       1.84   -3.65    2.92    0.14987    27.07  RIGHT     4.21117E-01  -121.61    2.23620E-01  -142.33
   45.00     0.00       1.46   -3.65    2.63    0.09240    28.71  RIGHT     4.03066E-01  -121.17    2.23620E-01  -133.64
   50.00     0.00       0.85   -3.65    2.17    0.03872    30.73  RIGHT     3.75461E-01  -120.63    2.23620E-01  -125.68
   55.00     0.00      -0.01   -3.65    1.55    0.01239    33.32  LEFT      3.40167E-01  -120.05    2.23620E-01  -118.50
   60.00     0.00      -1.13   -3.65    0.80    0.06111    36.73  LEFT      2.98999E-01  -119.47    2.23620E-01  -112.17
   65.00     0.00      -2.56   -3.65   -0.06    0.10584    41.33  LEFT      2.53584E-01  -118.91    2.23620E-01  -106.73
   70.00     0.00      -4.40   -3.65   -1.00    0.14174    47.55  LEFT      2.05274E-01  -118.42    2.23620E-01  -102.22
   75.00     0.00      -6.83   -3.65   -1.95    0.15893    55.81  LEFT      1.55120E-01  -118.01    2.23620E-01   -98.68
   80.00     0.00     -10.31   -3.65   -2.81    0.14337    66.11  LEFT      1.03879E-01  -117.70    2.23620E-01   -96.13
   85.00     0.00     -16.31   -3.65   -3.42    0.08665    77.80  LEFT      5.20606E-02  -117.51    2.23620E-01   -94.59
   90.00     0.00    -999.99   -3.65   -3.65    0.00000   -90.00  LINEAR    3.04671E-12    62.56    2.23620E-01   -94.07
    0.00    90.00      -3.65   -6.59   -1.87    0.34993    32.71  RIGHT     2.23620E-01   130.84    1.59549E-01    89.58
    5.00    90.00      -3.69   -6.59   -1.89    0.37386    32.38  RIGHT     2.22732E-01   133.44    1.59549E-01    89.58
   10.00    90.00      -3.80   -6.59   -1.96    0.39938    32.32  RIGHT     2.19953E-01   136.03    1.59549E-01    89.58
   15.00    90.00      -3.98   -6.59   -2.08    0.42664    32.56  RIGHT     2.15324E-01   138.57    1.59549E-01    89.58
   20.00    90.00      -4.25   -6.59   -2.25    0.45574    33.17  RIGHT     2.08910E-01   141.06    1.59549E-01    89.58
   25.00    90.00      -4.59   -6.59   -2.46    0.48657    34.26  RIGHT     2.00802E-01   143.46    1.59549E-01    89.58
   30.00    90.00      -5.02   -6.59   -2.72    0.51870    35.97  RIGHT     1.91110E-01   145.77    1.59549E-01    89.58
   35.00    90.00      -5.54   -6.59   -3.02    0.55099    38.52  RIGHT     1.79958E-01   147.96    1.59549E-01    89.58
   40.00    90.00      -6.16   -6.59   -3.36    0.58098    42.19  RIGHT     1.67484E-01   150.01    1.59549E-01    89.58
   45.00    90.00      -6.90   -6.59   -3.73    0.60403    47.25  RIGHT     1.53828E-01   151.92    1.59549E-01    89.58
   50.00    90.00      -7.78   -6.59   -4.13    0.61293    53.72  RIGHT     1.39136E-01   153.67    1.59549E-01    89.58
   55.00    90.00      -8.81   -6.59   -4.55    0.59965    61.05  RIGHT     1.23551E-01   155.24    1.59549E-01    89.58
   60.00    90.00     -10.04   -6.59   -4.97    0.55989    68.15  RIGHT     1.07208E-01   156.63    1.59549E-01    89.58
   65.00    90.00     -11.54   -6.59   -5.38    0.49577    74.17  RIGHT     9.02394E-02   157.82    1.59549E-01    89.58
   70.00    90.00     -13.41   -6.59   -5.77    0.41327    78.89  RIGHT     7.27670E-02   158.80    1.59549E-01    89.58
   75.00    90.00     -15.85   -6.59   -6.10    0.31843    82.52  RIGHT     5.49044E-02   159.57    1.59549E-01    89.58
   80.00    90.00     -19.34   -6.59   -6.36    0.21590    85.40  RIGHT     3.67572E-02   160.13    1.59549E-01    89.58
   85.00    90.00     -25.34   -6.59   -6.53    0.10895    87.81  RIGHT     1.84244E-02   160.46    1.59549E-01    89.58
   90.00    90.00    -999.99   -6.59   -6.59    0.00000   -90.00  LINEAR    1.07835E-12   -19.42    1.59549E-01    89.58






 ***** DATA CARD NO.  7   RP   0     1    72  1000  9.00000E+01  0.00000E+00  0.00000E+00  5.00000E+00  0.00000E+00  0.00000E+00



                                                - - - RADIATION PATTERNS - - -

  - - ANGLES - -           - POWER GAINS -       - - - POLARIZATION - - -    - - - E(THETA) - - -    - - - E(PHI) - - -
  THETA     PHI        VERT.   HOR.    TOTAL      AXIAL     TILT   SENSE     MAGNITUDE    PHASE      MAGNITUDE    PHASE 
 DEGREES  DEGREES       DB      DB      DB        RATIO     DEG.              VOLTS/M    DEGREES      VOLTS/M    DEGREES
   90.00     0.00    -999.99   -3.65   -3.65    0.00000   -90.00  LINEAR    3.04671E-12    62.56    2.23620E-01   -94.07
   90.00     5.00    -999.99   -5.68   -5.68    0.00000   -90.00  LINEAR    3.12683E-12    63.28    1.77179E-01   -84.71
   90.00    10.00    -999.99   -8.00   -8.00    0.00000   -90.00  LINEAR    3.18451E-12    63.91    1.35531E-01   -70.74
   90.00    15.00    -999.99  -10.25  -10.25    0.00000   -90.00  LINEAR    3.21942E-12    64.38    1.04593E-01   -48.50
   90.00    20.00    -999.99  -11.12  -11.12    0.00000    90.00  LINEAR    3.23039E-12    64.65    9.47003E-02   -17.35
   90.00    25.00    -999.99   -9.79   -9.79    0.00000    90.00  LINEAR    3.21531E-12    64.66    1.10369E-01    11.34
   90.00    30.00    -999.99   -7.61   -7.61    0.00000    90.00  LINEAR    3.17137E-12    64.39    1.41879E-01    29.91
   90.00    35.00    -999.99   -5.58   -5.58    0.00000    90.00  LINEAR    3.09536E-12    63.76    1.79186E-01    41.20
   90.00    40.00    -999.99   -3.92   -3.92    0.00000    90.00  LINEAR    2.98419E-12    62.73    2.16935E-01    48.50
   90.00    45.00    -999.99   -2.62   -2.62    0.00000    90.00  LINEAR    2.83563E-12    61.21    2.52029E-01    53.58
   90.00    50.00    -999.99   -1.64   -1.64    0.00000    90.00  LINEAR    2.64916E-12    59.07    2.82122E-01    57.35
   90.00    55.00    -999.99   -0.96   -0.96    0.00000    90.00  LINEAR    2.42698E-12    56.13    3.05105E-01    60.31
   90.00    60.00    -999.99   -0.57   -0.57    0.00000    90.00  LINEAR    2.17510E-12    52.10    3.19015E-01    62.79
   90.00    65.00    -999.99   -0.48   -0.48    0.00000    90.00  LINEAR    1.90465E-12    46.56    3.22110E-01    65.03
   90.00    70.00    -999.99   -0.73   -0.73    0.00000    90.00  LINEAR    1.63326E-12    38.86    3.13051E-01    67.28
   90.00    75.00    -999.99   -1.36   -1.36    0.00000    90.00  LINEAR    1.38643E-12    28.20    2.91141E-01    69.88
   90.00    80.00    -999.99   -2.46   -2.46    0.00000    90.00  LINEAR    1.19644E-12    14.03    2.56637E-01    73.40
   90.00    85.00    -999.99   -4.15   -4.15    0.00000    90.00  LINEAR    1.09234E-12    -2.82    2.11266E-01    79.01
   90.00    90.00    -999.99   -6.59   -6.59    0.00000   -90.00  LINEAR    1.07835E-12   -19.42    1.59549E-01    89.58
   90.00    95.00    -999.99   -9.53   -9.53    0.00000   -90.00  LINEAR    1.12433E-12   -32.84    1.13699E-01   112.52
   90.00   100.00    -999.99  -10.29  -10.29    0.00000   -90.00  LINEAR    1.18710E-12   -42.05    1.04122E-01   153.10
   90.00   105.00    -999.99   -7.37   -7.37    0.00000   -90.00  LINEAR    1.23379E-12   -47.38    1.45755E-01  -175.83
   90.00   110.00    -999.99   -4.22   -4.22    0.00000   -90.00  LINEAR    1.24879E-12   -49.32    2.09419E-01  -162.07
   90.00   115.00    -999.99   -1.83   -1.83    0.00000   -90.00  LINEAR    1.23262E-12   -48.04    2.75750E-01  -156.20
   90.00   120.00    -999.99   -0.10   -0.10    0.00000   -90.00  LINEAR    1.20000E-12   -43.52    3.36641E-01  -153.86
   90.00   125.00    -999.99    1.13    1.13    0.00000   -90.00  LINEAR    1.17713E-12   -35.87    3.87804E-01  -153.34
   90.00   130.00    -999.99    1.96    1.96    0.00000   -90.00  LINEAR    1.19450E-12   -25.94    4.26748E-01  -153.92
   90.00   135.00    -999.99    2.46    2.46    0.00000   -90.00  LINEAR    1.27332E-12   -15.53    4.52251E-01  -155.23
   90.00   140.00    -999.99    2.69    2.69    0.00000   -90.00  LINEAR    1.41448E-12    -6.49    4.64114E-01  -157.07
   90.00   145.00    -999.99    2.67    2.67    0.00000   -90.00  LINEAR    1.60168E-12     0.29    4.62971E-01  -159.31
   90.00   150.00    -999.99    2.42    2.42    0.00000   -90.00  LINEAR    1.81314E-12     4.86    4.50073E-01  -161.87
   90.00   155.00    -999.99    1.97    1.97    0.00000   -90.00  LINEAR    2.02970E-12     7.69    4.27069E-01  -164.72
   90.00   160.00    -999.99    1.31    1.31    0.00000   -90.00  LINEAR    2.23731E-12     9.26    3.95806E-01  -167.84
   90.00   165.00    -999.99    0.44    0.44    0.00000   -90.00  LINEAR    2.42668E-12     9.96    3.58150E-01  -171.25
   90.00   170.00    -999.99   -0.65   -0.65    0.00000   -90.00  LINEAR    2.59230E-12    10.09    3.15866E-01  -175.00
   90.00   175.00    -999.99   -2.00   -2.00    0.00000   -90.00  LINEAR    2.73122E-12     9.86    2.70547E-01  -179.24
   90.00   180.00    -999.99   -3.65   -3.65    0.00000   -90.00  LINEAR    2.84216E-12     9.44    2.23620E-01   175.75
   90.00   185.00    -999.99   -5.71   -5.71    0.00000   -90.00  LINEAR    2.92466E-12     8.95    1.76441E-01   169.36
   90.00   190.00    -999.99   -8.32   -8.32    0.00000   -90.00  LINEAR    2.97846E-12     8.48    1.30611E-01   160.17
   90.00   195.00    -999.99  -11.65  -11.65    0.00000   -90.00  LINEAR    3.00312E-12     8.10    8.90274E-02   144.39
   90.00   200.00    -999.99  -15.09  -15.09    0.00000   -90.00  LINEAR    2.99774E-12     7.90    5.99100E-02   112.42
   90.00   205.00    -999.99  -15.00  -15.00    0.00000    90.00  LINEAR    2.96096E-12     7.92    6.05453E-02    65.77
   90.00   210.00    -999.99  -11.87  -11.87    0.00000    90.00  LINEAR    2.89112E-12     8.23    8.68060E-02    36.50
   90.00   215.00    -999.99   -9.08   -9.08    0.00000    90.00  LINEAR    2.78660E-12     8.92    1.19697E-01    22.07
   90.00   220.00    -999.99   -7.04   -7.04    0.00000    90.00  LINEAR    2.64640E-12    10.06    1.51370E-01    13.59
   90.00   225.00    -999.99   -5.60   -5.60    0.00000    90.00  LINEAR    2.47084E-12    11.80    1.78697E-01     7.62
   90.00   230.00    -999.99   -4.64   -4.64    0.00000    90.00  LINEAR    2.26242E-12    14.32    1.99731E-01     2.77
   90.00   235.00    -999.99   -4.08   -4.08    0.00000    90.00  LINEAR    2.02688E-12    17.93    2.12958E-01    -1.68
   90.00   240.00    -999.99   -3.91   -3.91    0.00000    90.00  LINEAR    1.77445E-12    23.06    2.17241E-01    -6.28
   90.00   245.00    -999.99   -4.12   -4.12    0.00000    90.00  LINEAR    1.52135E-12    30.37    2.12033E-01   -11.63
   90.00   250.00    -999.99   -4.72   -4.72    0.00000    90.00  LINEAR    1.29138E-12    40.71    1.97829E-01   -18.61
   90.00   255.00    -999.99   -5.68   -5.68    0.00000    90.00  LINEAR    1.11543E-12    54.68    1.77035E-01   -28.64
   90.00   260.00    -999.99   -6.80   -6.80    0.00000   -90.00  LINEAR    1.02226E-12    71.44    1.55682E-01   -43.96
   90.00   265.00    -999.99   -7.39   -7.39    0.00000   -90.00  LINEAR    1.01701E-12    87.94    1.45458E-01   -66.02
   90.00   270.00    -999.99   -6.59   -6.59    0.00000   -90.00  LINEAR    1.07114E-12   101.12    1.59549E-01   -90.42
   90.00   275.00    -999.99   -4.66   -4.66    0.00000   -90.00  LINEAR    1.14314E-12   110.00    1.99199E-01  -109.26
   90.00   280.00    -999.99   -2.53   -2.53    0.00000   -90.00  LINEAR    1.20134E-12   114.99    2.54605E-01  -120.96
   90.00   285.00    -999.99   -0.65   -0.65    0.00000   -90.00  LINEAR    1.23053E-12   116.61    3.15990E-01  -127.70
   90.00   290.00    -999.99    0.87    0.87    0.00000   -90.00  LINEAR    1.23083E-12   115.14    3.76417E-01  -131.40
   90.00   295.00    -999.99    2.04    2.04    0.00000   -90.00  LINEAR    1.21583E-12   110.62    4.30970E-01  -133.16
   90.00   300.00    -999.99    2.91    2.91    0.00000   -90.00  LINEAR    1.20968E-12   103.28    4.76140E-01  -133.62
   90.00   305.00    -999.99    3.50    3.50    0.00000   -90.00  LINEAR    1.24015E-12    93.98    5.09601E-01  -133.15
   90.00   310.00    -999.99    3.84    3.84    0.00000   -90.00  LINEAR    1.32662E-12    84.32    5.30102E-01  -131.97
   90.00   315.00    -999.99    3.96    3.96    0.00000   -90.00  LINEAR    1.47063E-12    75.91    5.37371E-01  -130.23
   90.00   320.00    -999.99    3.87    3.87    0.00000   -90.00  LINEAR    1.65831E-12    69.54    5.31973E-01  -128.02
   90.00   325.00    -999.99    3.59    3.59    0.00000   -90.00  LINEAR    1.87006E-12    65.22    5.15117E-01  -125.41
   90.00   330.00    -999.99    3.13    3.13    0.00000   -90.00  LINEAR    2.08802E-12    62.58    4.88445E-01  -122.43
   90.00   335.00    -999.99    2.49    2.49    0.00000   -90.00  LINEAR    2.29878E-12    61.18    4.53822E-01  -119.11
   90.00   340.00    -999.99    1.68    1.68    0.00000   -90.00  LINEAR    2.49350E-12    60.66    4.13150E-01  -115.40
   90.00   345.00    -999.99    0.68    0.68    0.00000   -90.00  LINEAR    2.66715E-12    60.72    3.68233E-01  -111.27
   90.00   350.00    -999.99   -0.52   -0.52    0.00000   -90.00  LINEAR    2.81741E-12    61.17    3.20704E-01  -106.56
   90.00   355.00    -999.99   -1.95   -1.95    0.00000   -90.00  LINEAR    2.94379E-12    61.82    2.72027E-01  -101.00






 ***** DATA CARD NO.  8   FR   0     1     0     0  1.00000E+00  2.50000E-01  0.00000E+00  0.00000E+00  0.00000E+00  0.00000E+00
 ***** DATA CARD NO.  9   RP   0    19     2  1000  0.00000E+00  0.00000E+00  5.00000E+00  9.00000E+01  0.00000E+00  0.00000E+00




                                 - - - - - - FREQUENCY - - - - - -

                                    FREQUENCY= 1.0000E+00 MHZ
                                    WAVELENGTH= 2.9980E+02 METERS



                               - - - STRUCTURE IMPEDANCE LOADING - - -

                                   THIS STRUCTURE IS NOT LOADED



                                  - - - ANTENNA ENVIRONMENT - - -

                                            FREE SPACE




                    APPROXIMATE INTEGRATION EMPLOYED FOR SEGMENTS MORE THAN 299.800 METERS APART



                                - - - MATRIX TIMING - - -

                        FILL=    0.480 SEC.,  FACTOR=    0.020 SEC.



                                          - - - ANTENNA INPUT PARAMETERS - - -

   TAG   SEG.    VOLTAGE (VOLTS)         CURRENT (AMPS)         IMPEDANCE (OHMS)        ADMITTANCE (MHOS)      POWER
   NO.   NO.    REAL        IMAG.       REAL        IMAG.       REAL        IMAG.       REAL        IMAG.     (WATTS)
     2     4 1.00000E+00 0.00000E+00 6.45836E-04 1.34074E-04 1.48441E+03-3.08159E+02 6.45836E-04 1.34074E-04 3.22918E-04



                             - - - CURRENTS AND LOCATION - - -

                     LENGTHS NORMALIZED BY WAVELENGTH (OR 2.*PI/CABS(K))


  SEG.  TAG    COORD. OF SEG. CENTER     SEG.            - - - CURRENT (AMPS) - - -
  NO.   NO.     X        Y        Z      LENGTH     REAL        IMAG.       MAG.        PHASE
     1    2  -0.4289   0.0000   0.0000  0.14295   2.5210E-05 -1.4692E-03  1.4695E-03  -89.017
     2    2  -0.2859   0.0000   0.0000  0.14295   2.3763E-04 -2.9703E-03  2.9798E-03  -85.426
     3    2  -0.1430   0.0000   0.0000  0.14295   5.1956E-04 -2.1080E-03  2.1711E-03  -76.154
     4    2   0.0000   0.0000   0.0000  0.14295   6.4584E-04  1.3407E-04  6.5961E-04   11.728
     5    2   0.1430   0.0000   0.0000  0.14295   4.8142E-04  2.1559E-04  5.2749E-04   24.124
     6    2   0.2859   0.0000   0.0000  0.14295   8.8978E-05 -6.0581E-05  1.0764E-04  -34.249
     7    2   0.4289   0.0000   0.0000  0.14295  -3.0496E-04 -2.5276E-04  3.9609E-04 -140.346
     8    3   0.5003   0.0300   0.0000  0.06004  -4.5159E-04 -2.9482E-04  5.3930E-04 -146.861
     9    3   0.5003   0.0901   0.0000  0.06004  -4.5890E-04 -2.7638E-04  5.3570E-04 -148.941
    10    3   0.5003   0.1501   0.0000  0.06004  -4.0243E-04 -2.2740E-04  4.6224E-04 -150.531
    11    3   0.5003   0.2101   0.0000  0.06004  -2.8597E-04 -1.5286E-04  3.2426E-04 -151.874
    12    3   0.5003   0.2702   0.0000  0.06004  -1.1425E-04 -5.8006E-05  1.2813E-04 -153.082



                                        - - - POWER BUDGET - - -

                                           INPUT POWER   = 3.2292E-04 WATTS
                                           RADIATED POWER= 3.2292E-04 WATTS
                                           STRUCTURE LOSS= 0.0000E+00 WATTS
                                           NETWORK LOSS  = 0.0000E+00 WATTS
                                           EFFICIENCY    = 100.00 PERCENT



                                                - - - RADIATION PATTERNS - - -

  - - ANGLES - -           - POWER GAINS -       - - - POLARIZATION - - -    - - - E(THETA) - - -    - - - E(PHI) - - -
  THETA     PHI        VERT.   HOR.    TOTAL      AXIAL     TILT   SENSE     MAGNITUDE    PHASE      MAGNITUDE    PHASE 
 DEGREES  DEGREES       DB      DB      DB        RATIO     DEG.              VOLTS/M    DEGREES      VOLTS/M    DEGREES
    0.00     0.00       2.12  -15.89    2.19    0.12084     1.98  RIGHT     1.77649E-01  -165.18    2.23306E-02   120.56
    5.00     0.00       1.89  -15.89    1.96    0.09955     4.70  RIGHT     1.73012E-01  -172.80    2.23306E-02   136.26
   10.00     0.00       1.52  -15.89    1.60    0.06199     6.82  RIGHT     1.65707E-01   179.65    2.23306E-02   151.84
   15.00     0.00       0.99  -15.89    1.08    0.01206     8.12  RIGHT     1.55941E-01   172.11    2.23306E-02   167.18
   20.00     0.00       0.31  -15.89    0.41    0.04608     8.41  LEFT      1.44191E-01   164.47    2.23306E-02  -177.84
   25.00     0.00      -0.51  -15.89   -0.39    0.10773     7.51  LEFT      1.31142E-01   156.63    2.23306E-02  -163.32
   30.00     0.00      -1.46  -15.89   -1.31    0.16651     5.22  LEFT      1.17577E-01   148.51    2.23306E-02  -149.38
   35.00     0.00      -2.51  -15.89   -2.31    0.21286     1.39  LEFT      1.04231E-01   140.09    2.23306E-02  -136.13
   40.00     0.00      -3.62  -15.89   -3.37    0.23443    -3.79  LEFT      9.16763E-02   131.45    2.23306E-02  -123.66
   45.00     0.00      -4.78  -15.89   -4.46    0.22149    -9.59  LEFT      8.02239E-02   122.74    2.23306E-02  -112.08
   50.00     0.00      -5.98  -15.89   -5.56    0.17427   -15.01  LEFT      6.99081E-02   114.24    2.23306E-02  -101.46
   55.00     0.00      -7.23  -15.89   -6.67    0.10219   -19.53  LEFT      6.05367E-02   106.25    2.23306E-02   -91.89
   60.00     0.00      -8.58  -15.89   -7.84    0.01598   -23.31  LEFT      5.17942E-02    99.07    2.23306E-02   -83.45
   65.00     0.00     -10.13  -15.89   -9.11    0.07760   -27.00  RIGHT     4.33539E-02    92.88    2.23306E-02   -76.20
   70.00     0.00     -12.00  -15.89  -10.51    0.17522   -31.72  RIGHT     3.49570E-02    87.81    2.23306E-02   -70.18
   75.00     0.00     -14.42  -15.89  -12.08    0.26954   -39.41  RIGHT     2.64467E-02    83.89    2.23306E-02   -65.46
   80.00     0.00     -17.88  -15.89  -13.76    0.32232   -53.04  RIGHT     1.77642E-02    81.12    2.23306E-02   -62.06
   85.00     0.00     -23.86  -15.89  -15.25    0.23646   -72.06  RIGHT     8.92661E-03    79.47    2.23306E-02   -60.01
   90.00     0.00    -999.99  -15.89  -15.89    0.00000    90.00  LINEAR    5.22945E-13  -101.07    2.23306E-02   -59.32
    0.00    90.00     -15.89    2.12    2.19    0.12084   -88.02  RIGHT     2.23306E-02   120.56    1.77649E-01    14.82
    5.00    90.00     -15.92    2.12    2.19    0.11796   -87.58  RIGHT     2.22591E-02   124.24    1.77649E-01    14.82
   10.00    90.00     -16.03    2.12    2.19    0.11357   -87.19  RIGHT     2.19826E-02   127.90    1.77649E-01    14.82
   15.00    90.00     -16.22    2.12    2.18    0.10785   -86.85  RIGHT     2.15062E-02   131.49    1.77649E-01    14.82
   20.00    90.00     -16.49    2.12    2.18    0.10104   -86.59  RIGHT     2.08386E-02   135.00    1.77649E-01    14.82
   25.00    90.00     -16.85    2.12    2.18    0.09339   -86.41  RIGHT     1.99922E-02   138.40    1.77649E-01    14.82
   30.00    90.00     -17.30    2.12    2.17    0.08516   -86.31  RIGHT     1.89817E-02   141.66    1.77649E-01    14.82
   35.00    90.00     -17.85    2.12    2.17    0.07661   -86.29  RIGHT     1.78239E-02   144.75    1.77649E-01    14.82
   40.00    90.00     -18.50    2.12    2.16    0.06798   -86.36  RIGHT     1.65364E-02   147.66    1.77649E-01    14.82
   45.00    90.00     -19.27    2.12    2.15    0.05947   -86.51  RIGHT     1.51376E-02   150.35    1.77649E-01    14.82
   50.00    90.00     -20.17    2.12    2.15    0.05123   -86.72  RIGHT     1.36451E-02   152.82    1.77649E-01    14.82
   55.00    90.00     -21.23    2.12    2.14    0.04338   -87.00  RIGHT     1.20756E-02   155.03    1.77649E-01    14.82
   60.00    90.00     -22.49    2.12    2.14    0.03599   -87.34  RIGHT     1.04446E-02   156.98    1.77649E-01    14.82
   65.00    90.00     -24.01    2.12    2.13    0.02907   -87.72  RIGHT     8.76552E-03   158.66    1.77649E-01    14.82
   70.00    90.00     -25.91    2.12    2.13    0.02261   -88.13  RIGHT     7.05012E-03   160.05    1.77649E-01    14.82
   75.00    90.00     -28.37    2.12    2.13    0.01656   -88.58  RIGHT     5.30828E-03   161.13    1.77649E-01    14.82
   80.00    90.00     -31.87    2.12    2.12    0.01085   -89.04  RIGHT     3.54822E-03   161.92    1.77649E-01    14.82
   85.00    90.00     -37.88    2.12    2.12    0.00536   -89.52  RIGHT     1.77682E-03   162.39    1.77649E-01    14.82
   90.00    90.00    -999.99    2.12    2.12    0.00000    90.00  LINEAR    1.03961E-13   -17.46    1.77649E-01    14.82






 ***** DATA CARD NO. 10   RP   0     1    72  1000  9.00000E+01  0.00000E+00  0.00000E+00  5.00000E+00  0.00000E+00  0.00000E+00



                                                - - - RADIATION PATTERNS - - -

  - - ANGLES - -           - POWER GAINS -       - - - POLARIZATION - - -    - - - E(THETA) - - -    - - - E(PHI) - - -
  THETA     PHI        VERT.   HOR.    TOTAL      AXIAL     TILT   SENSE     MAGNITUDE    PHASE      MAGNITUDE    PHASE 
 DEGREES  DEGREES       DB      DB      DB        RATIO     DEG.              VOLTS/M    DEGREES      VOLTS/M    DEGREES
   90.00     0.00    -999.99  -15.89  -15.89    0.00000    90.00  LINEAR    5.22945E-13  -101.07    2.23306E-02   -59.32
   90.00     5.00    -999.99  -13.52  -13.52    0.00000    90.00  LINEAR    5.13629E-13  -101.30    2.93264E-02   -68.58
   90.00    10.00    -999.99  -11.54  -11.54    0.00000    90.00  LINEAR    5.00141E-13  -100.46    3.68661E-02   -74.33
   90.00    15.00    -999.99   -9.83   -9.83    0.00000    90.00  LINEAR    4.82104E-13   -98.43    4.48644E-02   -77.56
   90.00    20.00    -999.99   -8.35   -8.35    0.00000    90.00  LINEAR    4.59589E-13   -95.06    5.31802E-02   -78.73
   90.00    25.00    -999.99   -7.07   -7.07    0.00000    90.00  LINEAR    4.33375E-13   -90.15    6.16345E-02   -78.14
   90.00    30.00    -999.99   -5.96   -5.96    0.00000    90.00  LINEAR    4.05205E-13   -83.45    7.00480E-02   -75.98
   90.00    35.00    -999.99   -5.00   -5.00    0.00000    90.00  LINEAR    3.77936E-13   -74.76    7.82839E-02   -72.37
   90.00    40.00    -999.99   -4.15   -4.15    0.00000    90.00  LINEAR    3.55321E-13   -64.05    8.62940E-02   -67.40
   90.00    45.00    -999.99   -3.39   -3.39    0.00000    90.00  LINEAR    3.40981E-13   -51.76    9.41586E-02   -61.16
   90.00    50.00    -999.99   -2.69   -2.69    0.00000    90.00  LINEAR    3.36507E-13   -38.90    1.02102E-01   -53.77
   90.00    55.00    -999.99   -2.01   -2.01    0.00000    90.00  LINEAR    3.39767E-13   -26.72    1.10461E-01   -45.43
   90.00    60.00    -999.99   -1.32   -1.32    0.00000    90.00  LINEAR    3.45028E-13   -16.15    1.19574E-01   -36.45
   90.00    65.00    -999.99   -0.62   -0.62    0.00000    90.00  LINEAR    3.44805E-13    -7.57    1.29628E-01   -27.17
   90.00    70.00    -999.99    0.08    0.08    0.00000    90.00  LINEAR    3.31967E-13    -1.04    1.40495E-01   -17.95
   90.00    75.00    -999.99    0.75    0.75    0.00000    90.00  LINEAR    3.01219E-13     3.39    1.51659E-01    -9.06
   90.00    80.00    -999.99    1.33    1.33    0.00000    90.00  LINEAR    2.50113E-13     5.17    1.62260E-01    -0.64
   90.00    85.00    -999.99    1.80    1.80    0.00000    90.00  LINEAR    1.80334E-13     1.97    1.71257E-01     7.29
   90.00    90.00    -999.99    2.12    2.12    0.00000    90.00  LINEAR    1.03961E-13   -17.46    1.77649E-01    14.82
   90.00    95.00    -999.99    2.27    2.27    0.00000   -90.00  LINEAR    8.85852E-14   -81.87    1.80685E-01    22.09
   90.00   100.00    -999.99    2.24    2.24    0.00000   -90.00  LINEAR    1.75229E-13  -114.39    1.80046E-01    29.28
   90.00   105.00    -999.99    2.04    2.04    0.00000   -90.00  LINEAR    2.83736E-13  -121.49    1.75916E-01    36.58
   90.00   110.00    -999.99    1.69    1.69    0.00000   -90.00  LINEAR    3.89934E-13  -122.37    1.68968E-01    44.15
   90.00   115.00    -999.99    1.22    1.22    0.00000   -90.00  LINEAR    4.85559E-13  -120.92    1.60212E-01    52.08
   90.00   120.00    -999.99    0.70    0.70    0.00000   -90.00  LINEAR    5.66663E-13  -118.23    1.50758E-01    60.35
   90.00   125.00    -999.99    0.15    0.15    0.00000   -90.00  LINEAR    6.32278E-13  -114.70    1.41522E-01    68.79
   90.00   130.00    -999.99   -0.39   -0.39    0.00000   -90.00  LINEAR    6.83821E-13  -110.58    1.32981E-01    77.07
   90.00   135.00    -999.99   -0.92   -0.92    0.00000   -90.00  LINEAR    7.24291E-13  -106.03    1.25095E-01    84.81
   90.00   140.00    -999.99   -1.47   -1.47    0.00000   -90.00  LINEAR    7.57272E-13  -101.28    1.17419E-01    91.67
   90.00   145.00    -999.99   -2.09   -2.09    0.00000   -90.00  LINEAR    7.85964E-13   -96.56    1.09354E-01    97.47
   90.00   150.00    -999.99   -2.84   -2.84    0.00000   -90.00  LINEAR    8.12537E-13   -92.12    1.00372E-01   102.15
   90.00   155.00    -999.99   -3.77   -3.77    0.00000   -90.00  LINEAR    8.37936E-13   -88.16    9.01554E-02   105.80
   90.00   160.00    -999.99   -4.96   -4.96    0.00000   -90.00  LINEAR    8.62096E-13   -84.84    7.86114E-02   108.57
   90.00   165.00    -999.99   -6.50   -6.50    0.00000   -90.00  LINEAR    8.84358E-13   -82.23    6.58281E-02   110.71
   90.00   170.00    -999.99   -8.55   -8.55    0.00000   -90.00  LINEAR    9.03868E-13   -80.34    5.20031E-02   112.57
   90.00   175.00    -999.99  -11.41  -11.41    0.00000   -90.00  LINEAR    9.19819E-13   -79.17    3.73906E-02   114.94
   90.00   180.00    -999.99  -15.89  -15.89    0.00000   -90.00  LINEAR    9.31534E-13   -78.66    2.23306E-02   120.44
   90.00   185.00    -999.99  -24.55  -24.55    0.00000   -90.00  LINEAR    9.38421E-13   -78.75    8.24454E-03   150.41
   90.00   190.00    -999.99  -21.10  -21.10    0.00000    90.00  LINEAR    9.39869E-13   -79.39    1.22533E-02  -108.29
   90.00   195.00    -999.99  -13.96  -13.96    0.00000    90.00  LINEAR    9.35138E-13   -80.53    2.78837E-02   -93.73
   90.00   200.00    -999.99   -9.92   -9.92    0.00000    90.00  LINEAR    9.23287E-13   -82.10    4.44313E-02   -91.93
   90.00   205.00    -999.99   -7.12   -7.12    0.00000    90.00  LINEAR    9.03154E-13   -84.08    6.12770E-02   -93.09
   90.00   210.00    -999.99   -5.00   -5.00    0.00000    90.00  LINEAR    8.73411E-13   -86.42    7.82211E-02   -95.55
   90.00   215.00    -999.99   -3.31   -3.31    0.00000    90.00  LINEAR    8.32700E-13   -89.10    9.50581E-02   -98.81
   90.00   220.00    -999.99   -1.92   -1.92    0.00000    90.00  LINEAR    7.79853E-13   -92.12    1.11513E-01  -102.65
   90.00   225.00    -999.99   -0.78   -0.78    0.00000    90.00  LINEAR    7.14172E-13   -95.49    1.27227E-01  -106.97
   90.00   230.00    -999.99    0.16    0.16    0.00000    90.00  LINEAR    6.35752E-13   -99.26    1.41764E-01  -111.72
   90.00   235.00    -999.99    0.92    0.92    0.00000    90.00  LINEAR    5.45796E-13  -103.55    1.54650E-01  -116.88
   90.00   240.00    -999.99    1.50    1.50    0.00000    90.00  LINEAR    4.46862E-13  -108.61    1.65426E-01  -122.45
   90.00   245.00    -999.99    1.93    1.93    0.00000    90.00  LINEAR    3.42993E-13  -114.93    1.73718E-01  -128.46
   90.00   250.00    -999.99    2.20    2.20    0.00000    90.00  LINEAR    2.39783E-13  -123.69    1.79317E-01  -134.93
   90.00   255.00    -999.99    2.34    2.34    0.00000    90.00  LINEAR    1.44880E-13  -138.49    1.82223E-01  -141.88
   90.00   260.00    -999.99    2.36    2.36    0.00000    90.00  LINEAR    7.31949E-14  -173.87    1.82655E-01  -149.28
   90.00   265.00    -999.99    2.28    2.28    0.00000    90.00  LINEAR    6.53106E-14   116.15    1.80991E-01  -157.09
   90.00   270.00    -999.99    2.12    2.12    0.00000   -90.00  LINEAR    1.00519E-13    78.67    1.77649E-01  -165.18
   90.00   275.00    -999.99    1.89    1.89    0.00000   -90.00  LINEAR    1.29366E-13    57.90    1.72940E-01  -173.37
   90.00   280.00    -999.99    1.58    1.58    0.00000   -90.00  LINEAR    1.46721E-13    38.89    1.66963E-01   178.55
   90.00   285.00    -999.99    1.19    1.19    0.00000   -90.00  LINEAR    1.60474E-13    17.86    1.59590E-01   170.79
   90.00   290.00    -999.99    0.68    0.68    0.00000   -90.00  LINEAR    1.82314E-13    -4.33    1.50559E-01   163.50
   90.00   295.00    -999.99    0.03    0.03    0.00000   -90.00  LINEAR    2.19103E-13   -24.24    1.39641E-01   156.75
   90.00   300.00    -999.99   -0.81   -0.81    0.00000   -90.00  LINEAR    2.68491E-13   -39.84    1.26792E-01   150.50
   90.00   305.00    -999.99   -1.87   -1.87    0.00000   -90.00  LINEAR    3.23290E-13   -51.50    1.12239E-01   144.65
   90.00   310.00    -999.99   -3.18   -3.18    0.00000   -90.00  LINEAR    3.76514E-13   -60.39    9.64742E-02   139.01
   90.00   315.00    -999.99   -4.79   -4.79    0.00000   -90.00  LINEAR    4.23284E-13   -67.48    8.01856E-02   133.32
   90.00   320.00    -999.99   -6.73   -6.73    0.00000   -90.00  LINEAR    4.61051E-13   -73.44    6.41341E-02   127.21
   90.00   325.00    -999.99   -9.06   -9.06    0.00000   -90.00  LINEAR    4.89246E-13   -78.68    4.90372E-02   120.15
   90.00   330.00    -999.99  -11.87  -11.87    0.00000   -90.00  LINEAR    5.08721E-13   -83.41    3.54790E-02   111.23
   90.00   335.00    -999.99  -15.30  -15.30    0.00000   -90.00  LINEAR    5.21088E-13   -87.74    2.38971E-02    98.57
   90.00   340.00    -999.99  -19.48  -19.48    0.00000   -90.00  LINEAR    5.28116E-13   -91.64    1.47812E-02    77.23
   90.00   345.00    -999.99  -23.21  -23.21    0.00000   -90.00  LINEAR    5.31248E-13   -95.05    9.61185E-03    35.42
   90.00   350.00    -999.99  -22.17  -22.17    0.00000    90.00  LINEAR    5.31353E-13   -97.83    1.08333E-02   -15.57
   90.00   355.00    -999.99  -18.80  -18.80    0.00000    90.00  LINEAR    5.28672E-13   -99.88    1.59751E-02   -44.11






 ***** DATA CARD NO. 11   FR   0     1     0     0  1.50000E+00  2.50000E-01  0.00000E+00  0.00000E+00  0.00000E+00  0.00000E+00
 ***** DATA CARD NO. 12   RP   0    19     2  1000  0.00000E+00  0.00000E+00  5.00000E+00  9.00000E+01  0.00000E+00  0.00000E+00




                                 - - - - - - FREQUENCY - - - - - -

                                    FREQUENCY= 1.5000E+00 MHZ
                                    WAVELENGTH= 1.9987E+02 METERS



                               - - - STRUCTURE IMPEDANCE LOADING - - -

                                   THIS STRUCTURE IS NOT LOADED



                                  - - - ANTENNA ENVIRONMENT - - -

                                            FREE SPACE




                    APPROXIMATE INTEGRATION EMPLOYED FOR SEGMENTS MORE THAN 199.867 METERS APART



                                - - - MATRIX TIMING - - -

                        FILL=    0.450 SEC.,  FACTOR=    0.020 SEC.



                                          - - - ANTENNA INPUT PARAMETERS - - -

   TAG   SEG.    VOLTAGE (VOLTS)         CURRENT (AMPS)         IMPEDANCE (OHMS)        ADMITTANCE (MHOS)      POWER
   NO.   NO.    REAL        IMAG.       REAL        IMAG.       REAL        IMAG.       REAL        IMAG.     (WATTS)
     2     4 1.00000E+00 0.00000E+00 4.07737E-03 2.03286E-03 1.96429E+02-9.79339E+01 4.07737E-03 2.03286E-03 2.03868E-03



                             - - - CURRENTS AND LOCATION - - -

                     LENGTHS NORMALIZED BY WAVELENGTH (OR 2.*PI/CABS(K))


  SEG.  TAG    COORD. OF SEG. CENTER     SEG.            - - - CURRENT (AMPS) - - -
  NO.   NO.     X        Y        Z      LENGTH     REAL        IMAG.       MAG.        PHASE
     1    2  -0.6433   0.0000   0.0000  0.21443  -2.6628E-03 -1.4947E-03  3.0536E-03 -150.693
     2    2  -0.4289   0.0000   0.0000  0.21443  -3.1107E-03 -2.3121E-03  3.8758E-03 -143.377
     3    2  -0.2144   0.0000   0.0000  0.21443   1.6319E-03  1.8251E-04  1.6420E-03    6.382
     4    2   0.0000   0.0000   0.0000  0.21443   4.0774E-03  2.0329E-03  4.5560E-03   26.500
     5    2   0.2144   0.0000   0.0000  0.21443   4.5885E-04 -1.8497E-03  1.9058E-03  -76.068
     6    2   0.4289   0.0000   0.0000  0.21443  -3.6620E-03 -3.2650E-03  4.9061E-03 -138.280
     7    2   0.6433   0.0000   0.0000  0.21443  -1.9307E-03  4.3374E-06  1.9307E-03  179.871
     8    3   0.7505   0.0450   0.0000  0.09006   1.7561E-03  2.3922E-03  2.9676E-03   53.718
     9    3   0.7505   0.1351   0.0000  0.09006   3.3966E-03  3.1066E-03  4.6030E-03   42.447
    10    3   0.7505   0.2252   0.0000  0.09006   3.9545E-03  3.0916E-03  5.0196E-03   38.018
    11    3   0.7505   0.3152   0.0000  0.09006   3.2476E-03  2.3188E-03  3.9904E-03   35.527
    12    3   0.7505   0.4053   0.0000  0.09006   1.3781E-03  9.2389E-04  1.6592E-03   33.837



                                        - - - POWER BUDGET - - -

                                           INPUT POWER   = 2.0387E-03 WATTS
                                           RADIATED POWER= 2.0387E-03 WATTS
                                           STRUCTURE LOSS= 0.0000E+00 WATTS
                                           NETWORK LOSS  = 0.0000E+00 WATTS
                                           EFFICIENCY    = 100.00 PERCENT



                                                - - - RADIATION PATTERNS - - -

  - - ANGLES - -           - POWER GAINS -       - - - POLARIZATION - - -    - - - E(THETA) - - -    - - - E(PHI) - - -
  THETA     PHI        VERT.   HOR.    TOTAL      AXIAL     TILT   SENSE     MAGNITUDE    PHASE      MAGNITUDE    PHASE 
 DEGREES  DEGREES       DB      DB      DB        RATIO     DEG.              VOLTS/M    DEGREES      VOLTS/M    DEGREES
    0.00     0.00      -0.72   -1.24    2.04    0.11378   -43.26  LEFT      3.21745E-01   143.89    3.03270E-01   -49.11
    5.00     0.00      -1.17   -1.24    1.81    0.08174   -44.78  RIGHT     3.05555E-01   145.09    3.03270E-01   -25.57
   10.00     0.00      -2.70   -1.24    1.10    0.23929   -50.41  RIGHT     2.56129E-01   150.47    3.03270E-01    -2.20
   15.00     0.00      -5.40   -1.24    0.17    0.28585   -60.84  RIGHT     1.87769E-01   164.63    3.03270E-01    20.81
   20.00     0.00      -8.08   -1.24   -0.42    0.16096   -66.91  RIGHT     1.37879E-01  -161.32    3.03270E-01    43.29
   25.00     0.00      -6.64   -1.24   -0.14    0.02503   -61.81  RIGHT     1.62719E-01  -118.37    3.03270E-01    65.07
   30.00     0.00      -3.39   -1.24    0.83    0.02021   -52.05  RIGHT     2.36568E-01   -96.41    3.03270E-01    85.98
   35.00     0.00      -1.03   -1.24    1.88    0.10971   -44.29  RIGHT     3.10647E-01   -86.67    3.03270E-01   105.86
   40.00     0.00       0.40   -1.24    2.67    0.22786   -39.05  RIGHT     3.65992E-01   -81.61    3.03270E-01   124.56
   45.00     0.00       1.09   -1.24    3.09    0.35237   -35.18  RIGHT     3.96489E-01   -78.57    3.03270E-01   141.93
   50.00     0.00       1.21   -1.24    3.17    0.48177   -31.94  RIGHT     4.01888E-01   -76.56    3.03270E-01   157.86
   55.00     0.00       0.84   -1.24    2.94    0.62176   -28.98  RIGHT     3.85187E-01   -75.10    3.03270E-01   172.21
   60.00     0.00       0.03   -1.24    2.46    0.78296   -26.41  RIGHT     3.50956E-01   -73.99    3.03270E-01  -175.13
   65.00     0.00      -1.21   -1.24    1.79    0.98037   -41.03  RIGHT     3.04102E-01   -73.12    3.03270E-01  -164.25
   70.00     0.00      -2.95   -1.24    1.00    0.79103    73.85  RIGHT     2.49022E-01   -72.43    3.03270E-01  -155.23
   75.00     0.00      -5.34   -1.24    0.19    0.58583    77.04  RIGHT     1.89162E-01   -71.90    3.03270E-01  -148.14
   80.00     0.00      -8.80   -1.24   -0.53    0.38872    81.08  RIGHT     1.26890E-01   -71.52    3.03270E-01  -143.04
   85.00     0.00     -14.80   -1.24   -1.05    0.19418    85.47  RIGHT     6.36057E-02   -71.30    3.03270E-01  -139.96
   90.00     0.00    -999.99   -1.24   -1.24    0.00000   -90.00  LINEAR    3.72209E-12   108.78    3.03270E-01  -138.93
    0.00    90.00      -1.24   -0.72    2.04    0.11378    46.74  LEFT      3.03270E-01   -49.11    3.21745E-01   -36.11
    5.00    90.00      -1.23   -0.72    2.04    0.05640    46.68  LEFT      3.03496E-01   -42.57    3.21745E-01   -36.11
   10.00    90.00      -1.32   -0.72    2.00    0.00011    46.97  RIGHT     3.00366E-01   -36.09    3.21745E-01   -36.11
   15.00    90.00      -1.51   -0.72    1.91    0.05554    47.60  RIGHT     2.93964E-01   -29.72    3.21745E-01   -36.11
   20.00    90.00      -1.79   -0.72    1.79    0.10953    48.60  RIGHT     2.84467E-01   -23.51    3.21745E-01   -36.11
   25.00    90.00      -2.18   -0.72    1.62    0.16142    50.03  RIGHT     2.72134E-01   -17.50    3.21745E-01   -36.11
   30.00    90.00      -2.66   -0.72    1.43    0.21012    51.95  RIGHT     2.57290E-01   -11.74    3.21745E-01   -36.11
   35.00    90.00      -3.26   -0.72    1.20    0.25388    54.42  RIGHT     2.40297E-01    -6.27    3.21745E-01   -36.11
   40.00    90.00      -3.96   -0.72    0.96    0.29024    57.49  RIGHT     2.21538E-01    -1.14    3.21745E-01   -36.11
   45.00    90.00      -4.79   -0.72    0.71    0.31618    61.14  RIGHT     2.01391E-01     3.62    3.21745E-01   -36.11
   50.00    90.00      -5.76   -0.72    0.46    0.32866    65.23  RIGHT     1.80209E-01     7.98    3.21745E-01   -36.11
   55.00    90.00      -6.88   -0.72    0.22    0.32561    69.51  RIGHT     1.58306E-01    11.90    3.21745E-01   -36.11
   60.00    90.00      -8.20   -0.72   -0.01    0.30681    73.67  RIGHT     1.35945E-01    15.35    3.21745E-01   -36.11
   65.00    90.00      -9.78   -0.72   -0.21    0.27399    77.46  RIGHT     1.13334E-01    18.31    3.21745E-01   -36.11
   70.00    90.00     -11.73   -0.72   -0.39    0.23011    80.76  RIGHT     9.06223E-02    20.76    3.21745E-01   -36.11
   75.00    90.00     -14.23   -0.72   -0.53    0.17832    83.55  RIGHT     6.79038E-02    22.69    3.21745E-01   -36.11
   80.00    90.00     -17.76   -0.72   -0.64    0.12135    85.94  RIGHT     4.52259E-02    24.07    3.21745E-01   -36.11
   85.00    90.00     -23.79   -0.72   -0.70    0.06137    88.04  RIGHT     2.25972E-02    24.91    3.21745E-01   -36.11
   90.00    90.00    -999.99   -0.72   -0.72    0.00000   -90.00  LINEAR    1.32116E-12  -154.81    3.21745E-01   -36.11






 ***** DATA CARD NO. 13   RP   0     1    72  1000  9.00000E+01  0.00000E+00  0.00000E+00  5.00000E+00  0.00000E+00  0.00000E+00



                                                - - - RADIATION PATTERNS - - -

  - - ANGLES - -           - POWER GAINS -       - - - POLARIZATION - - -    - - - E(THETA) - - -    - - - E(PHI) - - -
  THETA     PHI        VERT.   HOR.    TOTAL      AXIAL     TILT   SENSE     MAGNITUDE    PHASE      MAGNITUDE    PHASE 
 DEGREES  DEGREES       DB      DB      DB        RATIO     DEG.              VOLTS/M    DEGREES      VOLTS/M    DEGREES
   90.00     0.00    -999.99   -1.24   -1.24    0.00000   -90.00  LINEAR    3.72209E-12   108.78    3.03270E-01  -138.93
   90.00     5.00    -999.99   -1.95   -1.95    0.00000   -90.00  LINEAR    3.77550E-12   106.89    2.79472E-01  -145.03
   90.00    10.00    -999.99   -2.64   -2.64    0.00000   -90.00  LINEAR    3.82076E-12   105.02    2.57848E-01  -154.83
   90.00    15.00    -999.99   -2.99   -2.99    0.00000    90.00  LINEAR    3.83743E-12   103.06    2.47739E-01  -168.49
   90.00    20.00    -999.99   -2.67   -2.67    0.00000    90.00  LINEAR    3.80396E-12   100.86    2.57226E-01   175.92
   90.00    25.00    -999.99   -1.70   -1.70    0.00000    90.00  LINEAR    3.69907E-12    98.20    2.87336E-01   161.58
   90.00    30.00    -999.99   -0.48   -0.48    0.00000    90.00  LINEAR    3.50394E-12    94.82    3.30964E-01   150.22
   90.00    35.00    -999.99    0.66    0.66    0.00000    90.00  LINEAR    3.20613E-12    90.34    3.77301E-01   141.62
   90.00    40.00    -999.99    1.49    1.49    0.00000    90.00  LINEAR    2.80520E-12    84.16    4.15213E-01   134.85
   90.00    45.00    -999.99    1.89    1.89    0.00000    90.00  LINEAR    2.32074E-12    75.18    4.34431E-01   129.00
   90.00    50.00    -999.99    1.73    1.73    0.00000    90.00  LINEAR    1.80387E-12    61.28    4.26526E-01   123.20
   90.00    55.00    -999.99    0.87    0.87    0.00000    90.00  LINEAR    1.35553E-12    38.62    3.86573E-01   116.45
   90.00    60.00    -999.99   -0.88   -0.88    0.00000   -90.00  LINEAR    1.12750E-12     5.08    3.15805E-01   106.91
   90.00    65.00    -999.99   -3.76   -3.76    0.00000   -90.00  LINEAR    1.17201E-12   -29.32    2.26740E-01    89.81
   90.00    70.00    -999.99   -6.85   -6.85    0.00000   -90.00  LINEAR    1.31570E-12   -55.64    1.58959E-01    53.32
   90.00    75.00    -999.99   -5.82   -5.82    0.00000    90.00  LINEAR    1.39416E-12   -77.29    1.78864E-01     5.79
   90.00    80.00    -999.99   -2.85   -2.85    0.00000    90.00  LINEAR    1.36991E-12   -99.49    2.51829E-01   -19.36
   90.00    85.00    -999.99   -1.07   -1.07    0.00000   -90.00  LINEAR    1.30941E-12  -125.60    3.08981E-01   -30.75
   90.00    90.00    -999.99   -0.72   -0.72    0.00000   -90.00  LINEAR    1.32116E-12  -154.81    3.21745E-01   -36.11
   90.00    95.00    -999.99   -1.83   -1.83    0.00000   -90.00  LINEAR    1.42957E-12   178.22    2.83223E-01   -36.98
   90.00   100.00    -999.99   -4.68   -4.68    0.00000   -90.00  LINEAR    1.53177E-12   156.27    2.03894E-01   -30.29
   90.00   105.00    -999.99   -9.03   -9.03    0.00000   -90.00  LINEAR    1.50656E-12   137.46    1.23565E-01    -0.28
   90.00   110.00    -999.99   -7.91   -7.91    0.00000    90.00  LINEAR    1.30142E-12   117.66    1.40617E-01    54.67
   90.00   115.00    -999.99   -3.80   -3.80    0.00000    90.00  LINEAR    9.81920E-13    88.81    2.25829E-01    75.56
   90.00   120.00    -999.99   -1.50   -1.50    0.00000    90.00  LINEAR    8.44479E-13    39.42    2.94161E-01    80.54
   90.00   125.00    -999.99   -0.76   -0.76    0.00000    90.00  LINEAR    1.19721E-12    -4.67    3.20435E-01    80.89
   90.00   130.00    -999.99   -1.32   -1.32    0.00000   -90.00  LINEAR    1.77348E-12   -26.95    3.00291E-01    79.75
   90.00   135.00    -999.99   -3.26   -3.26    0.00000   -90.00  LINEAR    2.32203E-12   -39.22    2.40260E-01    78.74
   90.00   140.00    -999.99   -7.14   -7.14    0.00000   -90.00  LINEAR    2.74215E-12   -46.96    1.53715E-01    80.55
   90.00   145.00    -999.99  -15.10  -15.10    0.00000   -90.00  LINEAR    3.00271E-12   -52.01    6.14632E-02   101.35
   90.00   150.00    -999.99  -14.56  -14.56    0.00000   -90.00  LINEAR    3.11445E-12   -55.04    6.54119E-02  -158.51
   90.00   155.00    -999.99   -7.58   -7.58    0.00000    90.00  LINEAR    3.11403E-12   -56.31    1.46114E-01  -141.17
   90.00   160.00    -999.99   -4.25   -4.25    0.00000    90.00  LINEAR    3.04947E-12   -56.00    2.14388E-01  -139.52
   90.00   165.00    -999.99   -2.48   -2.48    0.00000    90.00  LINEAR    2.96693E-12   -54.37    2.62901E-01  -140.24
   90.00   170.00    -999.99   -1.57   -1.57    0.00000    90.00  LINEAR    2.90033E-12   -51.82    2.91702E-01  -141.05
   90.00   175.00    -999.99   -1.22   -1.22    0.00000   -90.00  LINEAR    2.86577E-12   -48.88    3.03643E-01  -140.96
   90.00   180.00    -999.99   -1.24   -1.24    0.00000   -90.00  LINEAR    2.86196E-12   -46.02    3.03270E-01  -139.29
   90.00   185.00    -999.99   -1.44   -1.44    0.00000   -90.00  LINEAR    2.87523E-12   -43.54    2.96334E-01  -135.43
   90.00   190.00    -999.99   -1.64   -1.64    0.00000    90.00  LINEAR    2.88557E-12   -41.50    2.89527E-01  -128.99
   90.00   195.00    -999.99   -1.63   -1.63    0.00000    90.00  LINEAR    2.87093E-12   -39.84    2.89759E-01  -120.24
   90.00   200.00    -999.99   -1.27   -1.27    0.00000    90.00  LINEAR    2.80937E-12   -38.35    3.02203E-01  -110.33
   90.00   205.00    -999.99   -0.56   -0.56    0.00000    90.00  LINEAR    2.68026E-12   -36.84    3.27764E-01  -100.86
   90.00   210.00    -999.99    0.31    0.31    0.00000    90.00  LINEAR    2.46592E-12   -35.04    3.62287E-01   -92.95
   90.00   215.00    -999.99    1.13    1.13    0.00000    90.00  LINEAR    2.15445E-12   -32.62    3.98029E-01   -86.90
   90.00   220.00    -999.99    1.71    1.71    0.00000    90.00  LINEAR    1.74397E-12   -29.04    4.25602E-01   -82.47
   90.00   225.00    -999.99    1.91    1.91    0.00000    90.00  LINEAR    1.24826E-12   -22.95    4.35432E-01   -79.36
   90.00   230.00    -999.99    1.57    1.57    0.00000    90.00  LINEAR    7.08481E-13    -9.22    4.19103E-01   -77.39
   90.00   235.00    -999.99    0.52    0.52    0.00000   -90.00  LINEAR    3.02393E-13    48.81    3.71017E-01   -76.65
   90.00   240.00    -999.99   -1.61   -1.61    0.00000   -90.00  LINEAR    5.73481E-13   122.78    2.90432E-01   -77.96
   90.00   245.00    -999.99   -5.56   -5.56    0.00000   -90.00  LINEAR    9.79203E-13   142.34    1.84385E-01   -84.90
   90.00   250.00    -999.99  -12.45  -12.45    0.00000    90.00  LINEAR    1.25492E-12   154.50    8.33666E-02  -121.55
   90.00   255.00    -999.99   -9.39   -9.39    0.00000    90.00  LINEAR    1.35827E-12   167.10    1.18640E-01   161.23
   90.00   260.00    -999.99   -4.04   -4.04    0.00000    90.00  LINEAR    1.30956E-12  -176.63    2.19640E-01   144.74
   90.00   265.00    -999.99   -1.51   -1.51    0.00000    90.00  LINEAR    1.19289E-12  -153.96    2.94002E-01   142.22
   90.00   270.00    -999.99   -0.72   -0.72    0.00000   -90.00  LINEAR    1.13427E-12  -124.77    3.21745E-01   143.89
   90.00   275.00    -999.99   -1.38   -1.38    0.00000   -90.00  LINEAR    1.19437E-12   -94.94    2.98194E-01   148.50
   90.00   280.00    -999.99   -3.58   -3.58    0.00000   -90.00  LINEAR    1.29448E-12   -69.20    2.31431E-01   157.56
   90.00   285.00    -999.99   -7.63   -7.63    0.00000   -90.00  LINEAR    1.33116E-12   -45.60    1.45190E-01   178.65
   90.00   290.00    -999.99  -10.76  -10.76    0.00000   -90.00  LINEAR    1.29197E-12   -19.51    1.01272E-01  -127.08
   90.00   295.00    -999.99   -7.31   -7.31    0.00000   -90.00  LINEAR    1.29361E-12    12.30    1.50642E-01   -81.85
   90.00   300.00    -999.99   -4.38   -4.38    0.00000   -90.00  LINEAR    1.50510E-12    44.91    2.11260E-01   -66.16
   90.00   305.00    -999.99   -3.13   -3.13    0.00000   -90.00  LINEAR    1.93657E-12    69.75    2.43816E-01   -60.83
   90.00   310.00    -999.99   -3.12   -3.12    0.00000   -90.00  LINEAR    2.45382E-12    86.31    2.44242E-01   -61.37
   90.00   315.00    -999.99   -3.89   -3.89    0.00000   -90.00  LINEAR    2.93309E-12    97.39    2.23351E-01   -68.15
   90.00   320.00    -999.99   -4.74   -4.74    0.00000   -90.00  LINEAR    3.30387E-12   104.99    2.02499E-01   -82.44
   90.00   325.00    -999.99   -4.66   -4.66    0.00000   -90.00  LINEAR    3.54293E-12   110.11    2.04351E-01  -101.24
   90.00   330.00    -999.99   -3.55   -3.55    0.00000   -90.00  LINEAR    3.66218E-12   113.29    2.32410E-01  -116.65
   90.00   335.00    -999.99   -2.22   -2.22    0.00000   -90.00  LINEAR    3.69501E-12   114.83    2.70722E-01  -125.61
   90.00   340.00    -999.99   -1.21   -1.21    0.00000   -90.00  LINEAR    3.68253E-12   115.00    3.04014E-01  -130.03
   90.00   345.00    -999.99   -0.65   -0.65    0.00000   -90.00  LINEAR    3.66164E-12   114.14    3.24525E-01  -132.16
   90.00   350.00    -999.99   -0.50   -0.50    0.00000   -90.00  LINEAR    3.65703E-12   112.59    3.30078E-01  -133.59
   90.00   355.00    -999.99   -0.72   -0.72    0.00000   -90.00  LINEAR    3.67837E-12   110.72    3.21874E-01  -135.49






 ***** DATA CARD NO. 14   EN   0     0     0     0  0.00000E+00  0.00000E+00  0.00000E+00  0.00000E+00  0.00000E+00  0.00000E+00

 RUN TIME =     7.920
