1



                                 *********************************************
                                 *                                           *
                                 *  NUMERICAL ELECTROMAGNETICS CODE (NEC-4)  *
                                 *                                           *
                                 *********************************************




                      **********************************************************

                          FAN ANTENNA                                                                  

                      **********************************************************





                                 - - - STRUCTURE SPECIFICATION - - -

                                     COORDINATES MUST BE INPUT IN
                                     METERS OR BE SCALED TO METERS
                                     BEFORE STRUCTURE INPUT IS ENDED


  WIRE                                                                               NO. OF    FIRST  LAST     TAG
  NO.        X1         Y1         Z1          X2         Y2         Z2      RADIUS   SEG.     SEG.   SEG.     NO.
     1   12.50000    0.00000    0.75000     0.44000   -2.89000   16.40000    0.01000      8        1     8       1
     2   12.50000    0.00000    0.75000     0.44000    0.00000   16.40000    0.01000      8        9    16       2
     3   12.50000    0.00000    0.75000     0.44000    2.89000   16.40000    0.01000      8       17    24       3
     4   12.50000    0.00000    0.00000    12.50000    0.00000    0.75000    0.10000      2       25    26       4
     5    0.00000    0.00000    0.00000     0.00000    0.00000    9.00000    0.31250      4       27    30       5
     6    0.00000    0.00000    9.00000     0.00000    0.00000   17.00000    0.31250      4       31    34       5
     7    0.00000    0.00000   17.00000     0.00000    0.00000   18.00000    0.31250      1       35    35       5
     8    0.00000    0.00000   17.00000     0.00000   -3.75000   17.00000    0.15600      3       36    38       6
     9    0.00000    0.00000   17.00000     0.00000    3.75000   17.00000    0.15600      3       39    41       6
    10    3.50000   -2.25000    0.00000     0.00000    0.00000    9.00000    0.15600      4       42    45       7
    11    3.50000    2.25000    0.00000     0.00000    0.00000    9.00000    0.15600      4       46    49       8
      STRUCTURE SCALED BY FACTOR   0.60960

   GROUND PLANE SPECIFIED.

   WHERE WIRE ENDS TOUCH GROUND, CURRENT WILL BE INTERPOLATED TO IMAGE IN GROUND PLANE.


   TOTAL SEGMENTS USED=   49     NO. SEG. IN A SYMMETRIC CELL=   49     SYMMETRY FLAG=  0


         - MULTIPLE WIRE JUNCTIONS -
 JUNCTION    SEGMENTS  (- FOR END 1, + FOR END 2)
     1        -1   -9  -17   26
     2        30  -31   45   49
     3        34  -35  -36  -39




                                 - - - - SEGMENTATION DATA - - - -

                                        COORDINATES IN METERS

                         I+ AND I- INDICATE THE SEGMENTS BEFORE AND AFTER I


  SEG.   COORDINATES OF SEG. CENTER     SEG.     ORIENTATION ANGLES    WIRE    CONNECTION DATA   TAG
  NO.       X         Y         Z       LENGTH     ALPHA     BETA      RADIUS    I-   I    I+    NO.
     1   7.16051  -0.11011   1.05347   1.52156   51.60584-166.52405   0.00610    -9    1    2      1
     2   6.24154  -0.33033   2.24600   1.52156   51.60584-166.52405   0.00610     1    2    3      1
     3   5.32257  -0.55055   3.43852   1.52156   51.60584-166.52405   0.00610     2    3    4      1
     4   4.40360  -0.77076   4.63105   1.52156   51.60583-166.52405   0.00610     3    4    5      1
     5   3.48463  -0.99098   5.82359   1.52156   51.60583-166.52405   0.00610     4    5    6      1
     6   2.56565  -1.21120   7.01612   1.52156   51.60584-166.52405   0.00610     5    6    7      1
     7   1.64668  -1.43142   8.20865   1.52156   51.60586-166.52405   0.00610     6    7    8      1
     8   0.72771  -1.65164   9.40118   1.52156   51.60583-166.52403   0.00610     7    8    0      1
     9   7.16051   0.00000   1.05347   1.50554   52.38190 180.00000   0.00610   -17    9   10      2
    10   6.24154   0.00000   2.24600   1.50554   52.38190 180.00000   0.00610     9   10   11      2
    11   5.32257   0.00000   3.43852   1.50554   52.38190 180.00000   0.00610    10   11   12      2
    12   4.40360   0.00000   4.63105   1.50554   52.38189 180.00000   0.00610    11   12   13      2
    13   3.48463   0.00000   5.82359   1.50554   52.38189 180.00000   0.00610    12   13   14      2
    14   2.56565   0.00000   7.01612   1.50554   52.38190 180.00000   0.00610    13   14   15      2
    15   1.64668   0.00000   8.20865   1.50554   52.38192 180.00000   0.00610    14   15   16      2
    16   0.72771   0.00000   9.40118   1.50554   52.38188 180.00000   0.00610    15   16    0      2
    17   7.16051   0.11011   1.05347   1.52156   51.60584 166.52405   0.00610    26   17   18      3
    18   6.24154   0.33033   2.24600   1.52156   51.60584 166.52405   0.00610    17   18   19      3
    19   5.32257   0.55055   3.43852   1.52156   51.60584 166.52405   0.00610    18   19   20      3
    20   4.40360   0.77076   4.63105   1.52156   51.60583 166.52405   0.00610    19   20   21      3
    21   3.48463   0.99098   5.82359   1.52156   51.60583 166.52405   0.00610    20   21   22      3
    22   2.56565   1.21120   7.01612   1.52156   51.60584 166.52405   0.00610    21   22   23      3
    23   1.64668   1.43142   8.20865   1.52156   51.60586 166.52405   0.00610    22   23   24      3
    24   0.72771   1.65164   9.40118   1.52156   51.60583 166.52403   0.00610    23   24    0      3
    25   7.62000   0.00000   0.11430   0.22860   90.00000   0.00000   0.06096    25   25   26      4
    26   7.62000   0.00000   0.34290   0.22860   90.00000   0.00000   0.06096    25   26    1      4
    27   0.00000   0.00000   0.68580   1.37160   90.00000   0.00000   0.19050    27   27   28      5
    28   0.00000   0.00000   2.05740   1.37160   90.00000   0.00000   0.19050    27   28   29      5
    29   0.00000   0.00000   3.42900   1.37160   90.00000   0.00000   0.19050    28   29   30      5
    30   0.00000   0.00000   4.80060   1.37160   90.00000   0.00000   0.19050    29   30   31      5
    31   0.00000   0.00000   6.09600   1.21920   90.00000   0.00000   0.19050    45   31   32      5
    32   0.00000   0.00000   7.31520   1.21920   90.00000   0.00000   0.19050    31   32   33      5
    33   0.00000   0.00000   8.53440   1.21920   90.00000   0.00000   0.19050    32   33   34      5
    34   0.00000   0.00000   9.75360   1.21920   90.00000   0.00000   0.19050    33   34   35      5
    35   0.00000   0.00000  10.66800   0.60960   90.00000   0.00000   0.19050   -36   35    0      5
    36   0.00000  -0.38100  10.36320   0.76200    0.00000 -90.00000   0.09510   -39   36   37      6
    37   0.00000  -1.14300  10.36320   0.76200    0.00000 -90.00000   0.09510    36   37   38      6
    38   0.00000  -1.90500  10.36320   0.76200    0.00000 -90.00000   0.09510    37   38    0      6
    39   0.00000   0.38100  10.36320   0.76200    0.00000  90.00000   0.09510    34   39   40      6
    40   0.00000   1.14300  10.36320   0.76200    0.00000  90.00000   0.09510    39   40   41      6
    41   0.00000   1.90500  10.36320   0.76200    0.00000  90.00000   0.09510    40   41    0      6
    42   1.86690  -1.20015   0.68580   1.51109   65.18822 147.26479   0.09510    42   42   43      7
    43   1.33350  -0.85725   2.05740   1.51109   65.18822 147.26479   0.09510    42   43   44      7
    44   0.80010  -0.51435   3.42900   1.51109   65.18822 147.26479   0.09510    43   44   45      7
    45   0.26670  -0.17145   4.80060   1.51109   65.18822 147.26479   0.09510    44   45  -49      7
    46   1.86690   1.20015   0.68580   1.51109   65.18822-147.26479   0.09510    46   46   47      8
    47   1.33350   0.85725   2.05740   1.51109   65.18822-147.26479   0.09510    46   47   48      8
    48   0.80010   0.51435   3.42900   1.51109   65.18822-147.26479   0.09510    47   48   49      8
    49   0.26670   0.17145   4.80060   1.51109   65.18822-147.26479   0.09510    48   49  -30      8




 ***** INPUT LINE  1  GN   1    0    0    0  0.00000E+00  0.00000E+00  0.00000E+00  0.00000E+00  0.00000E+00  0.00000E+00
 ***** INPUT LINE  2  EX   0    4    1    0  1.00000E+00  0.00000E+00  0.00000E+00  0.00000E+00  0.00000E+00  0.00000E+00
 ***** INPUT LINE  3  FR   0    8    0    0  2.00000E+00  1.00000E+00  0.00000E+00  0.00000E+00  0.00000E+00  0.00000E+00
 ***** INPUT LINE  4  XQ   0    0    0    0  0.00000E+00  0.00000E+00  0.00000E+00  0.00000E+00  0.00000E+00  0.00000E+00




                                 - - - - - - FREQUENCY - - - - - -

                                    FREQUENCY= 2.0000E+00 MHZ
                                    WAVELENGTH= 1.4990E+02 METERS



                                  - - - ANTENNA ENVIRONMENT - - -

                                          PERFECT GROUND



                               - - - STRUCTURE IMPEDANCE LOADING - - -

                                   THIS STRUCTURE IS NOT LOADED



                                - - - MATRIX TIMING - - -

                        FILL=    3.760 SEC.,  FACTOR=    0.280 SEC.



                                          - - - ANTENNA INPUT PARAMETERS - - -

   TAG   SEG.    VOLTAGE (VOLTS)         CURRENT (AMPS)         IMPEDANCE (OHMS)        ADMITTANCE (MHOS)      POWER
   NO.   NO.    REAL        IMAG.       REAL        IMAG.       REAL        IMAG.       REAL        IMAG.     (WATTS)
     4    25 1.00000E+00 0.00000E+00 9.42802E-06 3.63297E-03 7.14320E-01-2.75255E+02 9.42802E-06 3.63297E-03 4.71401E-06



                             - - - CURRENTS AND LOCATION - - -

                     LENGTHS NORMALIZED BY WAVELENGTH (OR 2.*PI/CABS(K))

  SEG.  TAG    COORD. OF SEG. CENTER     SEG.            - - - CURRENT (AMPS) - - -
  NO.   NO.     X        Y        Z      LENGTH     REAL        IMAG.       MAG.        PHASE
     1    1   0.0478  -0.0007   0.0070  0.01015   3.3701E-06  1.1477E-03  1.1477E-03   89.832
     2    1   0.0416  -0.0022   0.0150  0.01015   3.2480E-06  1.0304E-03  1.0304E-03   89.819
     3    1   0.0355  -0.0037   0.0229  0.01015   3.0285E-06  9.0715E-04  9.0715E-04   89.809
     4    1   0.0294  -0.0051   0.0309  0.01015   2.7098E-06  7.7750E-04  7.7750E-04   89.800
     5    1   0.0232  -0.0066   0.0388  0.01015   2.2894E-06  6.3939E-04  6.3940E-04   89.795
     6    1   0.0171  -0.0081   0.0468  0.01015   1.7640E-06  4.9001E-04  4.9002E-04   89.794
     7    1   0.0110  -0.0095   0.0548  0.01015   1.1308E-06  3.2394E-04  3.2394E-04   89.800
     8    1   0.0049  -0.0110   0.0627  0.01015   3.9371E-07  1.2602E-04  1.2602E-04   89.821
     9    2   0.0478   0.0000   0.0070  0.01004   2.6050E-06  1.0652E-03  1.0652E-03   89.860
    10    2   0.0416   0.0000   0.0150  0.01004   2.5047E-06  9.6816E-04  9.6816E-04   89.852
    11    2   0.0355   0.0000   0.0229  0.01004   2.3208E-06  8.6145E-04  8.6145E-04   89.846
    12    2   0.0294   0.0000   0.0309  0.01004   2.0519E-06  7.4744E-04  7.4745E-04   89.843
    13    2   0.0232   0.0000   0.0388  0.01004   1.6969E-06  6.2464E-04  6.2464E-04   89.844
    14    2   0.0171   0.0000   0.0468  0.01004   1.2567E-06  4.9004E-04  4.9004E-04   89.853
    15    2   0.0110   0.0000   0.0548  0.01004   7.4293E-07  3.3617E-04  3.3617E-04   89.873
    16    2   0.0049   0.0000   0.0627  0.01004   2.1345E-07  1.3845E-04  1.3845E-04   89.912
    17    3   0.0478   0.0007   0.0070  0.01015   3.3700E-06  1.1476E-03  1.1476E-03   89.832
    18    3   0.0416   0.0022   0.0150  0.01015   3.2479E-06  1.0303E-03  1.0303E-03   89.819
    19    3   0.0355   0.0037   0.0229  0.01015   3.0284E-06  9.0709E-04  9.0709E-04   89.809
    20    3   0.0294   0.0051   0.0309  0.01015   2.7098E-06  7.7745E-04  7.7745E-04   89.800
    21    3   0.0232   0.0066   0.0388  0.01015   2.2894E-06  6.3936E-04  6.3936E-04   89.795
    22    3   0.0171   0.0081   0.0468  0.01015   1.7639E-06  4.8999E-04  4.8999E-04   89.794
    23    3   0.0110   0.0095   0.0548  0.01015   1.1307E-06  3.2392E-04  3.2393E-04   89.800
    24    3   0.0049   0.0110   0.0627  0.01015   3.9370E-07  1.2601E-04  1.2601E-04   89.821
    25    4   0.0508   0.0000   0.0008  0.00153   9.4280E-06  3.6330E-03  3.6330E-03   89.851
    26    4   0.0508   0.0000   0.0023  0.00153   9.4209E-06  3.5444E-03  3.5444E-03   89.848
    27    5   0.0000   0.0000   0.0046  0.00915   2.4164E-06 -3.4852E-05  3.4936E-05  -86.034
    28    5   0.0000   0.0000   0.0137  0.00915   2.2696E-06 -2.4983E-05  2.5085E-05  -84.809
    29    5   0.0000   0.0000   0.0229  0.00915   1.9992E-06 -6.7826E-06  7.0711E-06  -73.577
    30    5   0.0000   0.0000   0.0320  0.00915   1.6542E-06  1.8198E-05  1.8273E-05   84.806
    31    5   0.0000   0.0000   0.0407  0.00813   1.0130E-05 -8.7306E-04  8.7312E-04  -89.335
    32    5   0.0000   0.0000   0.0488  0.00813   9.2946E-06 -7.7326E-04  7.7332E-04  -89.311
    33    5   0.0000   0.0000   0.0569  0.00813   8.3339E-06 -6.4140E-04  6.4146E-04  -89.256
    34    5   0.0000   0.0000   0.0651  0.00813   7.3439E-06 -4.8505E-04  4.8510E-04  -89.133
    35    5   0.0000   0.0000   0.0712  0.00407   1.0212E-06 -3.8703E-05  3.8716E-05  -88.489
    36    6   0.0000  -0.0025   0.0691  0.00508   2.7115E-06 -1.7723E-04  1.7725E-04  -89.123
    37    6   0.0000  -0.0076   0.0691  0.00508   1.9253E-06 -1.2135E-04  1.2137E-04  -89.091
    38    6   0.0000  -0.0127   0.0691  0.00508   8.7633E-07 -4.7817E-05  4.7825E-05  -88.950
    39    6   0.0000   0.0025   0.0691  0.00508   2.7115E-06 -1.7723E-04  1.7725E-04  -89.123
    40    6   0.0000   0.0076   0.0691  0.00508   1.9253E-06 -1.2135E-04  1.2137E-04  -89.091
    41    6   0.0000   0.0127   0.0691  0.00508   8.7633E-07 -4.7817E-05  4.7825E-05  -88.950
    42    7   0.0125  -0.0080   0.0046  0.01008   5.2587E-06 -5.8437E-04  5.8440E-04  -89.484
    43    7   0.0089  -0.0057   0.0137  0.01008   5.1159E-06 -5.6056E-04  5.6058E-04  -89.477
    44    7   0.0053  -0.0034   0.0229  0.01008   4.8655E-06 -5.2206E-04  5.2208E-04  -89.466
    45    7   0.0018  -0.0011   0.0320  0.01008   4.5807E-06 -4.8205E-04  4.8207E-04  -89.456
    46    8   0.0125   0.0080   0.0046  0.01008   5.2589E-06 -5.8439E-04  5.8442E-04  -89.484
    47    8   0.0089   0.0057   0.0137  0.01008   5.1160E-06 -5.6058E-04  5.6060E-04  -89.477
    48    8   0.0053   0.0034   0.0229  0.01008   4.8656E-06 -5.2208E-04  5.2210E-04  -89.466
    49    8   0.0018   0.0011   0.0320  0.01008   4.5809E-06 -4.8207E-04  4.8209E-04  -89.456



                                        - - - POWER BUDGET - - -

                                           INPUT POWER   = 4.7140E-06 WATTS
                                           RADIATED POWER= 4.7140E-06 WATTS
                                           WIRE LOSS     = 0.0000E+00 WATTS
                                           EFFICIENCY    = 100.00 PERCENT




                                 - - - - - - FREQUENCY - - - - - -

                                    FREQUENCY= 3.0000E+00 MHZ
                                    WAVELENGTH= 9.9933E+01 METERS



                                  - - - ANTENNA ENVIRONMENT - - -

                                          PERFECT GROUND



                               - - - STRUCTURE IMPEDANCE LOADING - - -

                                   THIS STRUCTURE IS NOT LOADED



                                - - - MATRIX TIMING - - -

                        FILL=    3.790 SEC.,  FACTOR=    0.280 SEC.



                                          - - - ANTENNA INPUT PARAMETERS - - -

   TAG   SEG.    VOLTAGE (VOLTS)         CURRENT (AMPS)         IMPEDANCE (OHMS)        ADMITTANCE (MHOS)      POWER
   NO.   NO.    REAL        IMAG.       REAL        IMAG.       REAL        IMAG.       REAL        IMAG.     (WATTS)
     4    25 1.00000E+00 0.00000E+00 7.87026E-05 7.07517E-03 1.57203E+00-1.41322E+02 7.87026E-05 7.07517E-03 3.93513E-05



                             - - - CURRENTS AND LOCATION - - -

                     LENGTHS NORMALIZED BY WAVELENGTH (OR 2.*PI/CABS(K))

  SEG.  TAG    COORD. OF SEG. CENTER     SEG.            - - - CURRENT (AMPS) - - -
  NO.   NO.     X        Y        Z      LENGTH     REAL        IMAG.       MAG.        PHASE
     1    1   0.0717  -0.0011   0.0105  0.01523   2.7985E-05  2.2591E-03  2.2593E-03   89.290
     2    1   0.0625  -0.0033   0.0225  0.01523   2.6966E-05  2.0641E-03  2.0643E-03   89.252
     3    1   0.0533  -0.0055   0.0344  0.01523   2.5128E-05  1.8448E-03  1.8450E-03   89.220
     4    1   0.0441  -0.0077   0.0463  0.01523   2.2465E-05  1.6014E-03  1.6016E-03   89.196
     5    1   0.0349  -0.0099   0.0583  0.01523   1.8967E-05  1.3311E-03  1.3312E-03   89.184
     6    1   0.0257  -0.0121   0.0702  0.01523   1.4619E-05  1.0291E-03  1.0292E-03   89.186
     7    1   0.0165  -0.0143   0.0821  0.01523   9.4039E-06  6.8532E-04  6.8539E-04   89.214
     8    1   0.0073  -0.0165   0.0941  0.01523   3.3186E-06  2.6835E-04  2.6838E-04   89.291
     9    2   0.0717   0.0000   0.0105  0.01507   2.2066E-05  2.1367E-03  2.1369E-03   89.408
    10    2   0.0625   0.0000   0.0225  0.01507   2.1227E-05  1.9738E-03  1.9739E-03   89.384
    11    2   0.0533   0.0000   0.0344  0.01507   1.9690E-05  1.7818E-03  1.7819E-03   89.367
    12    2   0.0441   0.0000   0.0463  0.01507   1.7451E-05  1.5651E-03  1.5652E-03   89.361
    13    2   0.0349   0.0000   0.0583  0.01507   1.4509E-05  1.3214E-03  1.3215E-03   89.371
    14    2   0.0257   0.0000   0.0702  0.01507   1.0872E-05  1.0455E-03  1.0455E-03   89.404
    15    2   0.0165   0.0000   0.0821  0.01507   6.6127E-06  7.2225E-04  7.2228E-04   89.475
    16    2   0.0073   0.0000   0.0941  0.01507   2.0643E-06  2.9926E-04  2.9927E-04   89.605
    17    3   0.0717   0.0011   0.0105  0.01523   2.7985E-05  2.2591E-03  2.2593E-03   89.290
    18    3   0.0625   0.0033   0.0225  0.01523   2.6966E-05  2.0641E-03  2.0643E-03   89.251
    19    3   0.0533   0.0055   0.0344  0.01523   2.5128E-05  1.8448E-03  1.8450E-03   89.220
    20    3   0.0441   0.0077   0.0463  0.01523   2.2465E-05  1.6014E-03  1.6016E-03   89.196
    21    3   0.0349   0.0099   0.0583  0.01523   1.8967E-05  1.3311E-03  1.3312E-03   89.184
    22    3   0.0257   0.0121   0.0702  0.01523   1.4619E-05  1.0291E-03  1.0292E-03   89.186
    23    3   0.0165   0.0143   0.0821  0.01523   9.4040E-06  6.8532E-04  6.8538E-04   89.214
    24    3   0.0073   0.0165   0.0941  0.01523   3.3186E-06  2.6835E-04  2.6837E-04   89.291
    25    4   0.0763   0.0000   0.0011  0.00229   7.8703E-05  7.0752E-03  7.0756E-03   89.363
    26    4   0.0763   0.0000   0.0034  0.00229   7.8647E-05  6.9415E-03  6.9420E-03   89.351
    27    5   0.0000   0.0000   0.0069  0.01373   3.5709E-05 -4.2876E-04  4.3025E-04  -85.239
    28    5   0.0000   0.0000   0.0206  0.01373   3.4681E-05 -4.0747E-04  4.0894E-04  -85.135
    29    5   0.0000   0.0000   0.0343  0.01373   3.2786E-05 -3.6784E-04  3.6929E-04  -84.907
    30    5   0.0000   0.0000   0.0480  0.01373   3.0371E-05 -3.1283E-04  3.1430E-04  -84.455
    31    5   0.0000   0.0000   0.0610  0.01220   6.9016E-05 -2.0015E-03  2.0027E-03  -88.025
    32    5   0.0000   0.0000   0.0732  0.01220   6.3334E-05 -1.7790E-03  1.7801E-03  -87.961
    33    5   0.0000   0.0000   0.0854  0.01220   5.6894E-05 -1.4841E-03  1.4852E-03  -87.805
    34    5   0.0000   0.0000   0.0976  0.01220   5.0386E-05 -1.1343E-03  1.1354E-03  -87.457
    35    5   0.0000   0.0000   0.1068  0.00610   7.0293E-06 -9.4167E-05  9.4429E-05  -85.731
    36    6   0.0000  -0.0038   0.1037  0.00763   1.8664E-05 -4.1548E-04  4.1590E-04  -87.428
    37    6   0.0000  -0.0114   0.1037  0.00763   1.3288E-05 -2.8546E-04  2.8577E-04  -87.335
    38    6   0.0000  -0.0191   0.1037  0.00763   6.0857E-06 -1.1393E-04  1.1409E-04  -86.942
    39    6   0.0000   0.0038   0.1037  0.00763   1.8664E-05 -4.1548E-04  4.1590E-04  -87.428
    40    6   0.0000   0.0114   0.1037  0.00763   1.3288E-05 -2.8546E-04  2.8577E-04  -87.335
    41    6   0.0000   0.0191   0.1037  0.00763   6.0857E-06 -1.1393E-04  1.1409E-04  -86.942
    42    7   0.0187  -0.0120   0.0069  0.01512   2.6087E-05 -1.1373E-03  1.1376E-03  -88.686
    43    7   0.0133  -0.0086   0.0206  0.01512   2.5167E-05 -1.0890E-03  1.0892E-03  -88.676
    44    7   0.0080  -0.0051   0.0343  0.01512   2.3539E-05 -1.0093E-03  1.0095E-03  -88.664
    45    7   0.0027  -0.0017   0.0480  0.01512   2.1667E-05 -9.2455E-04  9.2481E-04  -88.658
    46    8   0.0187   0.0120   0.0069  0.01512   2.6087E-05 -1.1373E-03  1.1376E-03  -88.686
    47    8   0.0133   0.0086   0.0206  0.01512   2.5167E-05 -1.0889E-03  1.0892E-03  -88.676
    48    8   0.0080   0.0051   0.0343  0.01512   2.3539E-05 -1.0092E-03  1.0095E-03  -88.664
    49    8   0.0027   0.0017   0.0480  0.01512   2.1667E-05 -9.2455E-04  9.2481E-04  -88.658



                                        - - - POWER BUDGET - - -

                                           INPUT POWER   = 3.9351E-05 WATTS
                                           RADIATED POWER= 3.9351E-05 WATTS
                                           WIRE LOSS     = 0.0000E+00 WATTS
                                           EFFICIENCY    = 100.00 PERCENT




                                 - - - - - - FREQUENCY - - - - - -

                                    FREQUENCY= 4.0000E+00 MHZ
                                    WAVELENGTH= 7.4950E+01 METERS



                                  - - - ANTENNA ENVIRONMENT - - -

                                          PERFECT GROUND



                               - - - STRUCTURE IMPEDANCE LOADING - - -

                                   THIS STRUCTURE IS NOT LOADED



                                - - - MATRIX TIMING - - -

                        FILL=    3.830 SEC.,  FACTOR=    0.270 SEC.



                                          - - - ANTENNA INPUT PARAMETERS - - -

   TAG   SEG.    VOLTAGE (VOLTS)         CURRENT (AMPS)         IMPEDANCE (OHMS)        ADMITTANCE (MHOS)      POWER
   NO.   NO.    REAL        IMAG.       REAL        IMAG.       REAL        IMAG.       REAL        IMAG.     (WATTS)
     4    25 1.00000E+00 0.00000E+00 7.33153E-04 1.79199E-02 2.27927E+00-5.57105E+01 7.33153E-04 1.79199E-02 3.66577E-04



                             - - - CURRENTS AND LOCATION - - -

                     LENGTHS NORMALIZED BY WAVELENGTH (OR 2.*PI/CABS(K))

  SEG.  TAG    COORD. OF SEG. CENTER     SEG.            - - - CURRENT (AMPS) - - -
  NO.   NO.     X        Y        Z      LENGTH     REAL        IMAG.       MAG.        PHASE
     1    1   0.0955  -0.0015   0.0141  0.02030   2.5454E-04  5.7879E-03  5.7935E-03   87.482
     2    1   0.0833  -0.0044   0.0300  0.02030   2.4545E-04  5.4338E-03  5.4393E-03   87.414
     3    1   0.0710  -0.0073   0.0459  0.02030   2.2898E-04  4.9708E-03  4.9761E-03   87.363
     4    1   0.0588  -0.0103   0.0618  0.02030   2.0514E-04  4.4007E-03  4.4055E-03   87.331
     5    1   0.0465  -0.0132   0.0777  0.02030   1.7393E-04  3.7195E-03  3.7236E-03   87.323
     6    1   0.0342  -0.0162   0.0936  0.02030   1.3524E-04  2.9178E-03  2.9209E-03   87.346
     7    1   0.0220  -0.0191   0.1095  0.02030   8.8673E-05  1.9691E-03  1.9711E-03   87.422
     8    1   0.0097  -0.0220   0.1254  0.02030   3.2815E-05  7.8202E-04  7.8271E-04   87.597
     9    2   0.0955   0.0000   0.0141  0.02009   2.1846E-04  5.7283E-03  5.7325E-03   87.816
    10    2   0.0833   0.0000   0.0300  0.02009   2.1075E-04  5.4226E-03  5.4267E-03   87.774
    11    2   0.0710   0.0000   0.0459  0.02009   1.9661E-04  5.0034E-03  5.0073E-03   87.750
    12    2   0.0588   0.0000   0.0618  0.02009   1.7605E-04  4.4778E-03  4.4812E-03   87.748
    13    2   0.0465   0.0000   0.0777  0.02009   1.4908E-04  3.8419E-03  3.8448E-03   87.778
    14    2   0.0342   0.0000   0.0936  0.02009   1.1563E-04  3.0831E-03  3.0853E-03   87.852
    15    2   0.0220   0.0000   0.1095  0.02009   7.5464E-05  2.1585E-03  2.1598E-03   87.998
    16    2   0.0097   0.0000   0.1254  0.02009   2.7726E-05  9.0688E-04  9.0731E-04   88.249
    17    3   0.0955   0.0015   0.0141  0.02030   2.5454E-04  5.7880E-03  5.7936E-03   87.482
    18    3   0.0833   0.0044   0.0300  0.02030   2.4545E-04  5.4338E-03  5.4393E-03   87.414
    19    3   0.0710   0.0073   0.0459  0.02030   2.2897E-04  4.9708E-03  4.9761E-03   87.363
    20    3   0.0588   0.0103   0.0618  0.02030   2.0514E-04  4.4007E-03  4.4055E-03   87.331
    21    3   0.0465   0.0132   0.0777  0.02030   1.7393E-04  3.7195E-03  3.7236E-03   87.323
    22    3   0.0342   0.0162   0.0936  0.02030   1.3524E-04  2.9178E-03  2.9209E-03   87.346
    23    3   0.0220   0.0191   0.1095  0.02030   8.8672E-05  1.9691E-03  1.9711E-03   87.422
    24    3   0.0097   0.0220   0.1254  0.02030   3.2815E-05  7.8202E-04  7.8271E-04   87.597
    25    4   0.1017   0.0000   0.0015  0.00305   7.3315E-04  1.7920E-02  1.7935E-02   87.657
    26    4   0.1017   0.0000   0.0046  0.00305   7.3271E-04  1.7738E-02  1.7753E-02   87.635
    27    5   0.0000   0.0000   0.0092  0.01830   2.0879E-04 -2.1197E-03  2.1299E-03  -84.374
    28    5   0.0000   0.0000   0.0275  0.01830   2.0408E-04 -2.0481E-03  2.0582E-03  -84.310
    29    5   0.0000   0.0000   0.0458  0.01830   1.9543E-04 -1.9133E-03  1.9232E-03  -84.168
    30    5   0.0000   0.0000   0.0641  0.01830   1.8468E-04 -1.7246E-03  1.7344E-03  -83.887
    31    5   0.0000   0.0000   0.0813  0.01627   2.6439E-04 -7.1031E-03  7.1080E-03  -87.868
    32    5   0.0000   0.0000   0.0976  0.01627   2.4470E-04 -6.3521E-03  6.3568E-03  -87.794
    33    5   0.0000   0.0000   0.1139  0.01627   2.2513E-04 -5.3593E-03  5.3641E-03  -87.595
    34    5   0.0000   0.0000   0.1301  0.01627   2.0870E-04 -4.1881E-03  4.1933E-03  -87.147
    35    5   0.0000   0.0000   0.1423  0.00813   3.2049E-05 -3.7904E-04  3.8039E-04  -85.167
    36    6   0.0000  -0.0051   0.1383  0.01017   7.7905E-05 -1.5400E-03  1.5420E-03  -87.104
    37    6   0.0000  -0.0153   0.1383  0.01017   5.6155E-05 -1.0657E-03  1.0672E-03  -86.984
    38    6   0.0000  -0.0254   0.1383  0.01017   2.6700E-05 -4.3660E-04  4.3741E-04  -86.500
    39    6   0.0000   0.0051   0.1383  0.01017   7.7905E-05 -1.5400E-03  1.5420E-03  -87.104
    40    6   0.0000   0.0153   0.1383  0.01017   5.6155E-05 -1.0657E-03  1.0672E-03  -86.984
    41    6   0.0000   0.0254   0.1383  0.01017   2.6700E-05 -4.3660E-04  4.3741E-04  -86.500
    42    7   0.0249  -0.0160   0.0092  0.02016   6.2267E-05 -3.5983E-03  3.5988E-03  -89.009
    43    7   0.0178  -0.0114   0.0275  0.02016   5.9562E-05 -3.4588E-03  3.4594E-03  -89.013
    44    7   0.0107  -0.0069   0.0458  0.02016   5.4614E-05 -3.2203E-03  3.2208E-03  -89.028
    45    7   0.0036  -0.0023   0.0641  0.02016   4.8701E-05 -2.9574E-03  2.9578E-03  -89.057
    46    8   0.0249   0.0160   0.0092  0.02016   6.2266E-05 -3.5983E-03  3.5988E-03  -89.009
    47    8   0.0178   0.0114   0.0275  0.02016   5.9561E-05 -3.4588E-03  3.4593E-03  -89.013
    48    8   0.0107   0.0069   0.0458  0.02016   5.4613E-05 -3.2203E-03  3.2208E-03  -89.028
    49    8   0.0036   0.0023   0.0641  0.02016   4.8700E-05 -2.9574E-03  2.9578E-03  -89.057



                                        - - - POWER BUDGET - - -

                                           INPUT POWER   = 3.6658E-04 WATTS
                                           RADIATED POWER= 3.6658E-04 WATTS
                                           WIRE LOSS     = 0.0000E+00 WATTS
                                           EFFICIENCY    = 100.00 PERCENT




                                 - - - - - - FREQUENCY - - - - - -

                                    FREQUENCY= 5.0000E+00 MHZ
                                    WAVELENGTH= 5.9960E+01 METERS



                                  - - - ANTENNA ENVIRONMENT - - -

                                          PERFECT GROUND



                               - - - STRUCTURE IMPEDANCE LOADING - - -

                                   THIS STRUCTURE IS NOT LOADED



                                - - - MATRIX TIMING - - -

                        FILL=    3.860 SEC.,  FACTOR=    0.270 SEC.



                                          - - - ANTENNA INPUT PARAMETERS - - -

   TAG   SEG.    VOLTAGE (VOLTS)         CURRENT (AMPS)         IMPEDANCE (OHMS)        ADMITTANCE (MHOS)      POWER
   NO.   NO.    REAL        IMAG.       REAL        IMAG.       REAL        IMAG.       REAL        IMAG.     (WATTS)
     4    25 1.00000E+00 0.00000E+00 4.94752E-03-3.70687E-02 3.53756E+00 2.65048E+01 4.94752E-03-3.70687E-02 2.47376E-03



                             - - - CURRENTS AND LOCATION - - -

                     LENGTHS NORMALIZED BY WAVELENGTH (OR 2.*PI/CABS(K))

  SEG.  TAG    COORD. OF SEG. CENTER     SEG.            - - - CURRENT (AMPS) - - -
  NO.   NO.     X        Y        Z      LENGTH     REAL        IMAG.       MAG.        PHASE
     1    1   0.1194  -0.0018   0.0176  0.02538   1.6687E-03 -1.1868E-02  1.1984E-02  -81.996
     2    1   0.1041  -0.0055   0.0375  0.02538   1.6081E-03 -1.1700E-02  1.1809E-02  -82.174
     3    1   0.0888  -0.0092   0.0573  0.02538   1.4981E-03 -1.1160E-02  1.1260E-02  -82.354
     4    1   0.0734  -0.0129   0.0772  0.02538   1.3402E-03 -1.0244E-02  1.0332E-02  -82.547
     5    1   0.0581  -0.0165   0.0971  0.02538   1.1353E-03 -8.9455E-03  9.0172E-03  -82.767
     6    1   0.0428  -0.0202   0.1170  0.02538   8.8383E-04 -7.2382E-03  7.2919E-03  -83.038
     7    1   0.0275  -0.0239   0.1369  0.02538   5.8356E-04 -5.0458E-03  5.0794E-03  -83.403
     8    1   0.0121  -0.0275   0.1568  0.02538   2.2092E-04 -2.0856E-03  2.0972E-03  -83.953
     9    2   0.1194   0.0000   0.0176  0.02511   1.5745E-03 -1.3740E-02  1.3829E-02  -83.463
    10    2   0.1041   0.0000   0.0375  0.02511   1.5197E-03 -1.3519E-02  1.3604E-02  -83.586
    11    2   0.0888   0.0000   0.0573  0.02511   1.4189E-03 -1.2913E-02  1.2991E-02  -83.730
    12    2   0.0734   0.0000   0.0772  0.02511   1.2735E-03 -1.1914E-02  1.1982E-02  -83.899
    13    2   0.0581   0.0000   0.0971  0.02511   1.0845E-03 -1.0510E-02  1.0566E-02  -84.109
    14    2   0.0428   0.0000   0.1170  0.02511   8.5174E-04 -8.6655E-03  8.7072E-03  -84.386
    15    2   0.0275   0.0000   0.1369  0.02511   5.7142E-04 -6.2461E-03  6.2722E-03  -84.773
    16    2   0.0121   0.0000   0.1568  0.02511   2.2273E-04 -2.7161E-03  2.7253E-03  -85.312
    17    3   0.1194   0.0018   0.0176  0.02538   1.6687E-03 -1.1868E-02  1.1985E-02  -81.996
    18    3   0.1041   0.0055   0.0375  0.02538   1.6081E-03 -1.1700E-02  1.1810E-02  -82.174
    19    3   0.0888   0.0092   0.0573  0.02538   1.4981E-03 -1.1160E-02  1.1260E-02  -82.354
    20    3   0.0734   0.0129   0.0772  0.02538   1.3402E-03 -1.0245E-02  1.0332E-02  -82.547
    21    3   0.0581   0.0165   0.0971  0.02538   1.1353E-03 -8.9458E-03  9.0175E-03  -82.767
    22    3   0.0428   0.0202   0.1170  0.02538   8.8384E-04 -7.2384E-03  7.2921E-03  -83.038
    23    3   0.0275   0.0239   0.1369  0.02538   5.8357E-04 -5.0459E-03  5.0795E-03  -83.403
    24    3   0.0121   0.0275   0.1568  0.02538   2.2092E-04 -2.0856E-03  2.0973E-03  -83.953
    25    4   0.1271   0.0000   0.0019  0.00381   4.9475E-03 -3.7069E-02  3.7397E-02  -82.398
    26    4   0.1271   0.0000   0.0057  0.00381   4.9449E-03 -3.7271E-02  3.7597E-02  -82.442
    27    5   0.0000   0.0000   0.0114  0.02288   1.2111E-04  1.1377E-02  1.1378E-02   89.390
    28    5   0.0000   0.0000   0.0343  0.02288   1.1443E-04  1.1075E-02  1.1075E-02   89.408
    29    5   0.0000   0.0000   0.0572  0.02288   1.0267E-04  1.0499E-02  1.0499E-02   89.440
    30    5   0.0000   0.0000   0.0801  0.02288   9.0819E-05  9.6965E-03  9.6969E-03   89.463
    31    5   0.0000   0.0000   0.1017  0.02033   9.0399E-05  3.0105E-02  3.0106E-02   89.828
    32    5   0.0000   0.0000   0.1220  0.02033   1.1695E-04  2.7147E-02  2.7147E-02   89.753
    33    5   0.0000   0.0000   0.1423  0.02033   1.7370E-04  2.3302E-02  2.3303E-02   89.573
    34    5   0.0000   0.0000   0.1627  0.02033   2.6358E-04  1.8850E-02  1.8852E-02   89.199
    35    5   0.0000   0.0000   0.1779  0.01017   7.3531E-05  1.9234E-03  1.9248E-03   87.811
    36    6   0.0000  -0.0064   0.1728  0.01271   1.0218E-04  6.9741E-03  6.9749E-03   89.161
    37    6   0.0000  -0.0191   0.1728  0.01271   7.9719E-05  4.8768E-03  4.8775E-03   89.063
    38    6   0.0000  -0.0318   0.1728  0.01271   4.6870E-05  2.0747E-03  2.0752E-03   88.706
    39    6   0.0000   0.0064   0.1728  0.01271   1.0218E-04  6.9742E-03  6.9749E-03   89.161
    40    6   0.0000   0.0191   0.1728  0.01271   7.9715E-05  4.8768E-03  4.8775E-03   89.064
    41    6   0.0000   0.0318   0.1728  0.01271   4.6869E-05  2.0747E-03  2.0752E-03   88.706
    42    7   0.0311  -0.0200   0.0114  0.02520  -4.0056E-05  1.3414E-02  1.3414E-02   90.171
    43    7   0.0222  -0.0143   0.0343  0.02520  -3.1184E-05  1.2976E-02  1.2976E-02   90.138
    44    7   0.0133  -0.0086   0.0572  0.02520  -1.7367E-05  1.2184E-02  1.2185E-02   90.082
    45    7   0.0044  -0.0029   0.0801  0.02520  -3.9885E-06  1.1262E-02  1.1262E-02   90.020
    46    8   0.0311   0.0200   0.0114  0.02520  -4.0069E-05  1.3414E-02  1.3414E-02   90.171
    47    8   0.0222   0.0143   0.0343  0.02520  -3.1196E-05  1.2976E-02  1.2976E-02   90.138
    48    8   0.0133   0.0086   0.0572  0.02520  -1.7379E-05  1.2185E-02  1.2185E-02   90.082
    49    8   0.0044   0.0029   0.0801  0.02520  -4.0001E-06  1.1262E-02  1.1262E-02   90.020



                                        - - - POWER BUDGET - - -

                                           INPUT POWER   = 2.4738E-03 WATTS
                                           RADIATED POWER= 2.4738E-03 WATTS
                                           WIRE LOSS     = 0.0000E+00 WATTS
                                           EFFICIENCY    = 100.00 PERCENT




                                 - - - - - - FREQUENCY - - - - - -

                                    FREQUENCY= 6.0000E+00 MHZ
                                    WAVELENGTH= 4.9967E+01 METERS



                                  - - - ANTENNA ENVIRONMENT - - -

                                          PERFECT GROUND



                               - - - STRUCTURE IMPEDANCE LOADING - - -

                                   THIS STRUCTURE IS NOT LOADED



                                - - - MATRIX TIMING - - -

                        FILL=    3.870 SEC.,  FACTOR=    0.270 SEC.



                                          - - - ANTENNA INPUT PARAMETERS - - -

   TAG   SEG.    VOLTAGE (VOLTS)         CURRENT (AMPS)         IMPEDANCE (OHMS)        ADMITTANCE (MHOS)      POWER
   NO.   NO.    REAL        IMAG.       REAL        IMAG.       REAL        IMAG.       REAL        IMAG.     (WATTS)
     4    25 1.00000E+00 0.00000E+00 4.33042E-03-7.79303E-03 5.44818E+01 9.80454E+01 4.33042E-03-7.79303E-03 2.16521E-03



                             - - - CURRENTS AND LOCATION - - -

                     LENGTHS NORMALIZED BY WAVELENGTH (OR 2.*PI/CABS(K))

  SEG.  TAG    COORD. OF SEG. CENTER     SEG.            - - - CURRENT (AMPS) - - -
  NO.   NO.     X        Y        Z      LENGTH     REAL        IMAG.       MAG.        PHASE
     1    1   0.1433  -0.0022   0.0211  0.03045   1.7233E-03 -2.4619E-03  3.0051E-03  -55.008
     2    1   0.1249  -0.0066   0.0449  0.03045   1.6466E-03 -2.6367E-03  3.1086E-03  -58.015
     3    1   0.1065  -0.0110   0.0688  0.03045   1.5078E-03 -2.6755E-03  3.0711E-03  -60.596
     4    1   0.0881  -0.0154   0.0927  0.03045   1.3120E-03 -2.5721E-03  2.8873E-03  -62.975
     5    1   0.0697  -0.0198   0.1165  0.03045   1.0654E-03 -2.3236E-03  2.5562E-03  -65.368
     6    1   0.0513  -0.0242   0.1404  0.03045   7.7694E-04 -1.9247E-03  2.0756E-03  -68.017
     7    1   0.0330  -0.0286   0.1643  0.03045   4.5962E-04 -1.3588E-03  1.4344E-03  -71.311
     8    1   0.0146  -0.0331   0.1881  0.03045   1.3892E-04 -5.6086E-04  5.7781E-04  -76.088
     9    2   0.1433   0.0000   0.0211  0.03013   8.4289E-04 -3.5784E-03  3.6763E-03  -76.746
    10    2   0.1249   0.0000   0.0449  0.03013   7.9346E-04 -3.6781E-03  3.7627E-03  -77.827
    11    2   0.1065   0.0000   0.0688  0.03013   7.0734E-04 -3.6314E-03  3.6997E-03  -78.978
    12    2   0.0881   0.0000   0.0927  0.03013   5.8893E-04 -3.4256E-03  3.4758E-03  -80.245
    13    2   0.0697   0.0000   0.1165  0.03013   4.4297E-04 -3.0587E-03  3.0906E-03  -81.760
    14    2   0.0513   0.0000   0.1404  0.03013   2.7720E-04 -2.5256E-03  2.5408E-03  -83.737
    15    2   0.0330   0.0000   0.1643  0.03013   1.0889E-04 -1.8006E-03  1.8038E-03  -86.539
    16    2   0.0146   0.0000   0.1881  0.03013  -8.5336E-06 -7.6314E-04  7.6319E-04  -90.641
    17    3   0.1433   0.0022   0.0211  0.03045   1.7234E-03 -2.4618E-03  3.0051E-03  -55.006
    18    3   0.1249   0.0066   0.0449  0.03045   1.6467E-03 -2.6366E-03  3.1086E-03  -58.013
    19    3   0.1065   0.0110   0.0688  0.03045   1.5079E-03 -2.6755E-03  3.0712E-03  -60.594
    20    3   0.0881   0.0154   0.0927  0.03045   1.3121E-03 -2.5720E-03  2.8873E-03  -62.973
    21    3   0.0697   0.0198   0.1165  0.03045   1.0655E-03 -2.3235E-03  2.5562E-03  -65.366
    22    3   0.0513   0.0242   0.1404  0.03045   7.7700E-04 -1.9246E-03  2.0756E-03  -68.016
    23    3   0.0330   0.0286   0.1643  0.03045   4.5966E-04 -1.3588E-03  1.4344E-03  -71.310
    24    3   0.0146   0.0331   0.1881  0.03045   1.3893E-04 -5.6086E-04  5.7781E-04  -76.087
    25    4   0.1525   0.0000   0.0023  0.00458   4.3304E-03 -7.7930E-03  8.9154E-03  -60.940
    26    4   0.1525   0.0000   0.0069  0.00458   4.3275E-03 -8.0509E-03  9.1403E-03  -61.741
    27    5   0.0000   0.0000   0.0137  0.02745   3.0553E-03  2.1651E-03  3.7446E-03   35.322
    28    5   0.0000   0.0000   0.0412  0.02745   2.9808E-03  2.1198E-03  3.6577E-03   35.418
    29    5   0.0000   0.0000   0.0686  0.02745   2.8406E-03  2.0299E-03  3.4913E-03   35.550
    30    5   0.0000   0.0000   0.0961  0.02745   2.6553E-03  1.8949E-03  3.2621E-03   35.513
    31    5   0.0000   0.0000   0.1220  0.02440   5.9364E-03  6.1960E-03  8.5808E-03   46.226
    32    5   0.0000   0.0000   0.1464  0.02440   5.4253E-03  5.5887E-03  7.7890E-03   45.850
    33    5   0.0000   0.0000   0.1708  0.02440   4.8170E-03  4.7631E-03  6.7743E-03   44.678
    34    5   0.0000   0.0000   0.1952  0.02440   4.1735E-03  3.7688E-03  5.6233E-03   42.083
    35    5   0.0000   0.0000   0.2135  0.01220   5.2066E-04  3.4509E-04  6.2464E-04   33.536
    36    6   0.0000  -0.0076   0.2074  0.01525   1.5619E-03  1.3926E-03  2.0925E-03   41.720
    37    6   0.0000  -0.0229   0.2074  0.01525   1.1134E-03  9.6785E-04  1.4753E-03   40.999
    38    6   0.0000  -0.0381   0.2074  0.01525   5.0558E-04  4.0397E-04  6.4715E-04   38.626
    39    6   0.0000   0.0076   0.2074  0.01525   1.5619E-03  1.3926E-03  2.0925E-03   41.720
    40    6   0.0000   0.0229   0.2074  0.01525   1.1134E-03  9.6785E-04  1.4753E-03   40.999
    41    6   0.0000   0.0381   0.2074  0.01525   5.0558E-04  4.0397E-04  6.4715E-04   38.625
    42    7   0.0374  -0.0240   0.0137  0.03024   2.1414E-03  2.7157E-03  3.4584E-03   51.744
    43    7   0.0267  -0.0172   0.0412  0.03024   2.0841E-03  2.6497E-03  3.3711E-03   51.814
    44    7   0.0160  -0.0103   0.0686  0.03024   1.9735E-03  2.5185E-03  3.1997E-03   51.918
    45    7   0.0053  -0.0034   0.0961  0.03024   1.8359E-03  2.3534E-03  2.9848E-03   52.041
    46    8   0.0374   0.0240   0.0137  0.03024   2.1414E-03  2.7157E-03  3.4584E-03   51.744
    47    8   0.0267   0.0172   0.0412  0.03024   2.0840E-03  2.6497E-03  3.3711E-03   51.814
    48    8   0.0160   0.0103   0.0686  0.03024   1.9735E-03  2.5185E-03  3.1996E-03   51.918
    49    8   0.0053   0.0034   0.0961  0.03024   1.8359E-03  2.3534E-03  2.9848E-03   52.041



                                        - - - POWER BUDGET - - -

                                           INPUT POWER   = 2.1652E-03 WATTS
                                           RADIATED POWER= 2.1652E-03 WATTS
                                           WIRE LOSS     = 0.0000E+00 WATTS
                                           EFFICIENCY    = 100.00 PERCENT




                                 - - - - - - FREQUENCY - - - - - -

                                    FREQUENCY= 7.0000E+00 MHZ
                                    WAVELENGTH= 4.2829E+01 METERS



                                  - - - ANTENNA ENVIRONMENT - - -

                                          PERFECT GROUND



                               - - - STRUCTURE IMPEDANCE LOADING - - -

                                   THIS STRUCTURE IS NOT LOADED



                                - - - MATRIX TIMING - - -

                        FILL=    3.870 SEC.,  FACTOR=    0.270 SEC.



                                          - - - ANTENNA INPUT PARAMETERS - - -

   TAG   SEG.    VOLTAGE (VOLTS)         CURRENT (AMPS)         IMPEDANCE (OHMS)        ADMITTANCE (MHOS)      POWER
   NO.   NO.    REAL        IMAG.       REAL        IMAG.       REAL        IMAG.       REAL        IMAG.     (WATTS)
     4    25 1.00000E+00 0.00000E+00 9.93878E-04-7.62980E-03 1.67880E+01 1.28878E+02 9.93878E-04-7.62980E-03 4.96939E-04



                             - - - CURRENTS AND LOCATION - - -

                     LENGTHS NORMALIZED BY WAVELENGTH (OR 2.*PI/CABS(K))

  SEG.  TAG    COORD. OF SEG. CENTER     SEG.            - - - CURRENT (AMPS) - - -
  NO.   NO.     X        Y        Z      LENGTH     REAL        IMAG.       MAG.        PHASE
     1    1   0.1672  -0.0026   0.0246  0.03553   7.4341E-04 -2.3523E-02  2.3534E-02  -88.190
     2    1   0.1457  -0.0077   0.0524  0.03553   7.1352E-04 -2.2962E-02  2.2973E-02  -88.220
     3    1   0.1243  -0.0129   0.0803  0.03553   6.5643E-04 -2.1453E-02  2.1463E-02  -88.247
     4    1   0.1028  -0.0180   0.1081  0.03553   5.7442E-04 -1.9036E-02  1.9044E-02  -88.272
     5    1   0.0814  -0.0231   0.1360  0.03553   4.7084E-04 -1.5808E-02  1.5815E-02  -88.294
     6    1   0.0599  -0.0283   0.1638  0.03553   3.5004E-04 -1.1910E-02  1.1915E-02  -88.317
     7    1   0.0384  -0.0334   0.1917  0.03553   2.1706E-04 -7.5083E-03  7.5114E-03  -88.344
     8    1   0.0170  -0.0386   0.2195  0.03553   7.5693E-05 -2.6981E-03  2.6991E-03  -88.393
     9    2   0.1672   0.0000   0.0246  0.03515  -5.0108E-04  3.8591E-02  3.8595E-02   90.744
    10    2   0.1457   0.0000   0.0524  0.03515  -4.8611E-04  3.6971E-02  3.6974E-02   90.753
    11    2   0.1243   0.0000   0.0803  0.03515  -4.5242E-04  3.3968E-02  3.3971E-02   90.763
    12    2   0.1028   0.0000   0.1081  0.03515  -4.0034E-04  2.9684E-02  2.9686E-02   90.773
    13    2   0.0814   0.0000   0.1360  0.03515  -3.3196E-04  2.4296E-02  2.4299E-02   90.783
    14    2   0.0599   0.0000   0.1638  0.03515  -2.5036E-04  1.8045E-02  1.8046E-02   90.795
    15    2   0.0384   0.0000   0.1917  0.03515  -1.5907E-04  1.1208E-02  1.1209E-02   90.813
    16    2   0.0170   0.0000   0.2195  0.03515  -5.8561E-05  3.9536E-03  3.9541E-03   90.849
    17    3   0.1672   0.0026   0.0246  0.03553   7.4333E-04 -2.3521E-02  2.3533E-02  -88.190
    18    3   0.1457   0.0077   0.0524  0.03553   7.1344E-04 -2.2961E-02  2.2972E-02  -88.220
    19    3   0.1243   0.0129   0.0803  0.03553   6.5636E-04 -2.1452E-02  2.1462E-02  -88.247
    20    3   0.1028   0.0180   0.1081  0.03553   5.7436E-04 -1.9035E-02  1.9043E-02  -88.272
    21    3   0.0814   0.0231   0.1360  0.03553   4.7078E-04 -1.5807E-02  1.5814E-02  -88.294
    22    3   0.0599   0.0283   0.1638  0.03553   3.5000E-04 -1.1909E-02  1.1915E-02  -88.317
    23    3   0.0384   0.0334   0.1917  0.03553   2.1703E-04 -7.5079E-03  7.5110E-03  -88.344
    24    3   0.0170   0.0386   0.2195  0.03553   7.5683E-05 -2.6979E-03  2.6990E-03  -88.393
    25    4   0.1779   0.0000   0.0027  0.00534   9.9388E-04 -7.6298E-03  7.6943E-03  -82.578
    26    4   0.1779   0.0000   0.0080  0.00534   9.9336E-04 -7.9303E-03  7.9923E-03  -82.860
    27    5   0.0000   0.0000   0.0160  0.03203   2.4969E-05  2.1317E-03  2.1319E-03   89.329
    28    5   0.0000   0.0000   0.0480  0.03203   2.4879E-05  2.0238E-03  2.0240E-03   89.296
    29    5   0.0000   0.0000   0.0801  0.03203   2.4539E-05  1.8183E-03  1.8185E-03   89.227
    30    5   0.0000   0.0000   0.1121  0.03203   2.3892E-05  1.5371E-03  1.5373E-03   89.109
    31    5   0.0000   0.0000   0.1423  0.02847   2.4502E-04  5.0532E-03  5.0591E-03   87.224
    32    5   0.0000   0.0000   0.1708  0.02847   2.4058E-04  4.1986E-03  4.2055E-03   86.720
    33    5   0.0000   0.0000   0.1993  0.02847   2.2914E-04  3.4459E-03  3.4535E-03   86.196
    34    5   0.0000   0.0000   0.2277  0.02847   1.9859E-04  3.5927E-03  3.5981E-03   86.836
    35    5   0.0000   0.0000   0.2491  0.01423   2.9894E-05  3.2971E-04  3.3106E-04   84.819
    36    6   0.0000  -0.0089   0.2420  0.01779   6.5784E-05  1.8302E-03  1.8314E-03   87.941
    37    6   0.0000  -0.0267   0.2420  0.01779   4.3844E-05  1.5040E-03  1.5046E-03   88.330
    38    6   0.0000  -0.0445   0.2420  0.01779   2.1738E-05  6.3281E-04  6.3318E-04   88.033
    39    6   0.0000   0.0089   0.2420  0.01779   6.5790E-05  1.8302E-03  1.8313E-03   87.941
    40    6   0.0000   0.0267   0.2420  0.01779   4.3849E-05  1.5039E-03  1.5045E-03   88.330
    41    6   0.0000   0.0445   0.2420  0.01779   2.1740E-05  6.3279E-04  6.3316E-04   88.032
    42    7   0.0436  -0.0280   0.0160  0.03528   9.9758E-05  2.7650E-03  2.7668E-03   87.934
    43    7   0.0311  -0.0200   0.0480  0.03528   1.0322E-04  2.6313E-03  2.6333E-03   87.754
    44    7   0.0187  -0.0120   0.0801  0.03528   1.0774E-04  2.3849E-03  2.3873E-03   87.413
    45    7   0.0062  -0.0040   0.1121  0.03528   1.1098E-04  2.0965E-03  2.0994E-03   86.970
    46    8   0.0436   0.0280   0.0160  0.03528   9.9759E-05  2.7650E-03  2.7668E-03   87.934
    47    8   0.0311   0.0200   0.0480  0.03528   1.0322E-04  2.6313E-03  2.6334E-03   87.754
    48    8   0.0187   0.0120   0.0801  0.03528   1.0774E-04  2.3849E-03  2.3873E-03   87.413
    49    8   0.0062   0.0040   0.1121  0.03528   1.1098E-04  2.0965E-03  2.0994E-03   86.970



                                        - - - POWER BUDGET - - -

                                           INPUT POWER   = 4.9694E-04 WATTS
                                           RADIATED POWER= 4.9694E-04 WATTS
                                           WIRE LOSS     = 0.0000E+00 WATTS
                                           EFFICIENCY    = 100.00 PERCENT




                                 - - - - - - FREQUENCY - - - - - -

                                    FREQUENCY= 8.0000E+00 MHZ
                                    WAVELENGTH= 3.7475E+01 METERS



                                  - - - ANTENNA ENVIRONMENT - - -

                                          PERFECT GROUND



                               - - - STRUCTURE IMPEDANCE LOADING - - -

                                   THIS STRUCTURE IS NOT LOADED



                                - - - MATRIX TIMING - - -

                        FILL=    3.990 SEC.,  FACTOR=    0.290 SEC.



                                          - - - ANTENNA INPUT PARAMETERS - - -

   TAG   SEG.    VOLTAGE (VOLTS)         CURRENT (AMPS)         IMPEDANCE (OHMS)        ADMITTANCE (MHOS)      POWER
   NO.   NO.    REAL        IMAG.       REAL        IMAG.       REAL        IMAG.       REAL        IMAG.     (WATTS)
     4    25 1.00000E+00 0.00000E+00 1.79206E-03-2.93684E-03 1.51401E+02 2.48117E+02 1.79206E-03-2.93684E-03 8.96028E-04



                             - - - CURRENTS AND LOCATION - - -

                     LENGTHS NORMALIZED BY WAVELENGTH (OR 2.*PI/CABS(K))

  SEG.  TAG    COORD. OF SEG. CENTER     SEG.            - - - CURRENT (AMPS) - - -
  NO.   NO.     X        Y        Z      LENGTH     REAL        IMAG.       MAG.        PHASE
     1    1   0.1911  -0.0029   0.0281  0.04060   5.6833E-04 -1.5118E-03  1.6151E-03  -69.397
     2    1   0.1666  -0.0088   0.0599  0.04060   5.3628E-04 -1.8116E-03  1.8893E-03  -73.510
     3    1   0.1420  -0.0147   0.0918  0.04060   4.8020E-04 -1.9699E-03  2.0275E-03  -76.300
     4    1   0.1175  -0.0206   0.1236  0.04060   4.0458E-04 -1.9724E-03  2.0135E-03  -78.408
     5    1   0.0930  -0.0264   0.1554  0.04060   3.1442E-04 -1.8167E-03  1.8437E-03  -80.181
     6    1   0.0685  -0.0323   0.1872  0.04060   2.1586E-04 -1.5048E-03  1.5202E-03  -81.837
     7    1   0.0439  -0.0382   0.2190  0.04060   1.1658E-04 -1.0405E-03  1.0470E-03  -83.607
     8    1   0.0194  -0.0441   0.2509  0.04060   2.9122E-05 -4.0889E-04  4.0993E-04  -85.926
     9    2   0.1911   0.0000   0.0281  0.04017   6.3750E-04 -9.1537E-04  1.1155E-03  -55.145
    10    2   0.1666   0.0000   0.0599  0.04017   6.0200E-04 -1.1753E-03  1.3205E-03  -62.878
    11    2   0.1420   0.0000   0.0918  0.04017   5.3812E-04 -1.3481E-03  1.4516E-03  -68.240
    12    2   0.1175   0.0000   0.1236  0.04017   4.5079E-04 -1.4089E-03  1.4793E-03  -72.257
    13    2   0.0930   0.0000   0.1554  0.04017   3.4577E-04 -1.3495E-03  1.3931E-03  -75.629
    14    2   0.0685   0.0000   0.1872  0.04017   2.3053E-04 -1.1650E-03  1.1876E-03  -78.807
    15    2   0.0439   0.0000   0.2190  0.04017   1.1593E-04 -8.4696E-04  8.5485E-04  -82.206
    16    2   0.0194   0.0000   0.2509  0.04017   2.3186E-05 -3.5552E-04  3.5628E-04  -86.269
    17    3   0.1911   0.0029   0.0281  0.04060   5.6837E-04 -1.5119E-03  1.6152E-03  -69.397
    18    3   0.1666   0.0088   0.0599  0.04060   5.3632E-04 -1.8117E-03  1.8894E-03  -73.509
    19    3   0.1420   0.0147   0.0918  0.04060   4.8023E-04 -1.9699E-03  2.0276E-03  -76.300
    20    3   0.1175   0.0206   0.1236  0.04060   4.0461E-04 -1.9725E-03  2.0136E-03  -78.408
    21    3   0.0930   0.0264   0.1554  0.04060   3.1444E-04 -1.8167E-03  1.8437E-03  -80.180
    22    3   0.0685   0.0323   0.1872  0.04060   2.1588E-04 -1.5049E-03  1.5203E-03  -81.836
    23    3   0.0439   0.0382   0.2190  0.04060   1.1659E-04 -1.0405E-03  1.0470E-03  -83.606
    24    3   0.0194   0.0441   0.2509  0.04060   2.9128E-05 -4.0890E-04  4.0994E-04  -85.925
    25    4   0.2033   0.0000   0.0031  0.00610   1.7921E-03 -2.9368E-03  3.4404E-03  -58.609
    26    4   0.2033   0.0000   0.0092  0.00610   1.7910E-03 -3.2851E-03  3.7415E-03  -61.401
    27    5   0.0000   0.0000   0.0183  0.03660   9.3331E-04 -7.4171E-05  9.3625E-04   -4.544
    28    5   0.0000   0.0000   0.0549  0.03660   9.1528E-04 -5.8673E-05  9.1716E-04   -3.668
    29    5   0.0000   0.0000   0.0915  0.03660   8.7999E-04 -3.4793E-05  8.8068E-04   -2.264
    30    5   0.0000   0.0000   0.1281  0.03660   8.3054E-04 -1.6985E-05  8.3072E-04   -1.172
    31    5   0.0000   0.0000   0.1627  0.03253   1.9295E-03  1.1109E-03  2.2264E-03   29.932
    32    5   0.0000   0.0000   0.1952  0.03253   1.7707E-03  9.9466E-04  2.0310E-03   29.324
    33    5   0.0000   0.0000   0.2277  0.03253   1.5766E-03  7.8743E-04  1.7623E-03   26.540
    34    5   0.0000   0.0000   0.2603  0.03253   1.3733E-03  5.0327E-04  1.4626E-03   20.127
    35    5   0.0000   0.0000   0.2847  0.01627   1.6194E-04 -7.6018E-06  1.6211E-04   -2.688
    36    6   0.0000  -0.0102   0.2765  0.02033   5.2309E-04  1.8651E-04  5.5534E-04   19.624
    37    6   0.0000  -0.0305   0.2765  0.02033   3.7627E-04  1.2232E-04  3.9565E-04   18.009
    38    6   0.0000  -0.0508   0.2765  0.02033   1.7135E-04  3.4865E-05  1.7486E-04   11.501
    39    6   0.0000   0.0102   0.2765  0.02033   5.2309E-04  1.8651E-04  5.5534E-04   19.624
    40    6   0.0000   0.0305   0.2765  0.02033   3.7627E-04  1.2232E-04  3.9565E-04   18.009
    41    6   0.0000   0.0508   0.2765  0.02033   1.7135E-04  3.4866E-05  1.7486E-04   11.501
    42    7   0.0498  -0.0320   0.0183  0.04032   6.5857E-04  5.7733E-04  8.7579E-04   41.239
    43    7   0.0356  -0.0229   0.0549  0.04032   6.5231E-04  5.8877E-04  8.7873E-04   42.069
    44    7   0.0214  -0.0137   0.0915  0.04032   6.3435E-04  5.9400E-04  8.6905E-04   43.119
    45    7   0.0071  -0.0046   0.1281  0.04032   6.0527E-04  5.8412E-04  8.4116E-04   43.981
    46    8   0.0498   0.0320   0.0183  0.04032   6.5856E-04  5.7733E-04  8.7579E-04   41.239
    47    8   0.0356   0.0229   0.0549  0.04032   6.5231E-04  5.8877E-04  8.7873E-04   42.069
    48    8   0.0214   0.0137   0.0915  0.04032   6.3435E-04  5.9400E-04  8.6905E-04   43.119
    49    8   0.0071   0.0046   0.1281  0.04032   6.0527E-04  5.8412E-04  8.4116E-04   43.981



                                        - - - POWER BUDGET - - -

                                           INPUT POWER   = 8.9603E-04 WATTS
                                           RADIATED POWER= 8.9603E-04 WATTS
                                           WIRE LOSS     = 0.0000E+00 WATTS
                                           EFFICIENCY    = 100.00 PERCENT




                                 - - - - - - FREQUENCY - - - - - -

                                    FREQUENCY= 9.0000E+00 MHZ
                                    WAVELENGTH= 3.3311E+01 METERS



                                  - - - ANTENNA ENVIRONMENT - - -

                                          PERFECT GROUND



                               - - - STRUCTURE IMPEDANCE LOADING - - -

                                   THIS STRUCTURE IS NOT LOADED



                                - - - MATRIX TIMING - - -

                        FILL=    3.900 SEC.,  FACTOR=    0.280 SEC.



                                          - - - ANTENNA INPUT PARAMETERS - - -

   TAG   SEG.    VOLTAGE (VOLTS)         CURRENT (AMPS)         IMPEDANCE (OHMS)        ADMITTANCE (MHOS)      POWER
   NO.   NO.    REAL        IMAG.       REAL        IMAG.       REAL        IMAG.       REAL        IMAG.     (WATTS)
     4    25 1.00000E+00 0.00000E+00 1.50837E-03-1.46019E-03 3.42242E+02 3.31310E+02 1.50837E-03-1.46019E-03 7.54184E-04



                             - - - CURRENTS AND LOCATION - - -

                     LENGTHS NORMALIZED BY WAVELENGTH (OR 2.*PI/CABS(K))

  SEG.  TAG    COORD. OF SEG. CENTER     SEG.            - - - CURRENT (AMPS) - - -
  NO.   NO.     X        Y        Z      LENGTH     REAL        IMAG.       MAG.        PHASE
     1    1   0.2150  -0.0033   0.0316  0.04568   5.0441E-04 -9.6212E-04  1.0863E-03  -62.333
     2    1   0.1874  -0.0099   0.0674  0.04568   4.7231E-04 -1.3416E-03  1.4223E-03  -70.606
     3    1   0.1598  -0.0165   0.1032  0.04568   4.1654E-04 -1.5884E-03  1.6421E-03  -75.306
     4    1   0.1322  -0.0231   0.1390  0.04568   3.4285E-04 -1.6782E-03  1.7129E-03  -78.454
     5    1   0.1046  -0.0297   0.1748  0.04568   2.5766E-04 -1.6022E-03  1.6228E-03  -80.864
     6    1   0.0770  -0.0364   0.2106  0.04568   1.6853E-04 -1.3595E-03  1.3699E-03  -82.933
     7    1   0.0494  -0.0430   0.2464  0.04568   8.4249E-05 -9.5405E-04  9.5777E-04  -84.953
     8    1   0.0218  -0.0496   0.2822  0.04568   1.7562E-05 -3.7752E-04  3.7793E-04  -87.337
     9    2   0.2150   0.0000   0.0316  0.04520   4.8290E-04 -6.8812E-04  8.4066E-04  -54.940
    10    2   0.1874   0.0000   0.0674  0.04520   4.5123E-04 -1.0050E-03  1.1016E-03  -65.819
    11    2   0.1598   0.0000   0.1032  0.04520   3.9566E-04 -1.2350E-03  1.2968E-03  -72.236
    12    2   0.1322   0.0000   0.1390  0.04520   3.2198E-04 -1.3438E-03  1.3818E-03  -76.525
    13    2   0.1046   0.0000   0.1748  0.04520   2.3663E-04 -1.3185E-03  1.3395E-03  -79.825
    14    2   0.0770   0.0000   0.2106  0.04520   1.4741E-04 -1.1527E-03  1.1621E-03  -82.713
    15    2   0.0494   0.0000   0.2464  0.04520   6.4631E-05 -8.4085E-04  8.4333E-04  -85.605
    16    2   0.0218   0.0000   0.2822  0.04520   6.7796E-06 -3.5121E-04  3.5128E-04  -88.894
    17    3   0.2150   0.0033   0.0316  0.04568   5.0441E-04 -9.6211E-04  1.0863E-03  -62.333
    18    3   0.1874   0.0099   0.0674  0.04568   4.7231E-04 -1.3416E-03  1.4223E-03  -70.606
    19    3   0.1598   0.0165   0.1032  0.04568   4.1654E-04 -1.5884E-03  1.6421E-03  -75.305
    20    3   0.1322   0.0231   0.1390  0.04568   3.4285E-04 -1.6782E-03  1.7129E-03  -78.454
    21    3   0.1046   0.0297   0.1748  0.04568   2.5766E-04 -1.6022E-03  1.6228E-03  -80.864
    22    3   0.0770   0.0364   0.2106  0.04568   1.6853E-04 -1.3595E-03  1.3699E-03  -82.933
    23    3   0.0494   0.0430   0.2464  0.04568   8.4249E-05 -9.5405E-04  9.5776E-04  -84.953
    24    3   0.0218   0.0496   0.2822  0.04568   1.7562E-05 -3.7752E-04  3.7793E-04  -87.337
    25    4   0.2288   0.0000   0.0034  0.00686   1.5084E-03 -1.4602E-03  2.0994E-03  -44.070
    26    4   0.2288   0.0000   0.0103  0.00686   1.5074E-03 -1.8539E-03  2.3894E-03  -50.885
    27    5   0.0000   0.0000   0.0206  0.04118   6.4472E-04 -1.6494E-04  6.6548E-04  -14.351
    28    5   0.0000   0.0000   0.0618  0.04118   6.3652E-04 -1.4232E-04  6.5224E-04  -12.604
    29    5   0.0000   0.0000   0.1029  0.04118   6.1909E-04 -1.0600E-04  6.2810E-04   -9.716
    30    5   0.0000   0.0000   0.1441  0.04118   5.9184E-04 -7.3191E-05  5.9634E-04   -7.050
    31    5   0.0000   0.0000   0.1830  0.03660   1.4627E-03  8.8671E-04  1.7105E-03   31.225
    32    5   0.0000   0.0000   0.2196  0.03660   1.3518E-03  8.0582E-04  1.5737E-03   30.800
    33    5   0.0000   0.0000   0.2562  0.03660   1.2088E-03  6.3546E-04  1.3656E-03   27.731
    34    5   0.0000   0.0000   0.2928  0.03660   1.0527E-03  3.8361E-04  1.1204E-03   20.022
    35    5   0.0000   0.0000   0.3203  0.01830   1.1985E-04 -1.7128E-05  1.2107E-04   -8.133
    36    6   0.0000  -0.0114   0.3111  0.02288   4.0283E-04  1.3957E-04  4.2632E-04   19.110
    37    6   0.0000  -0.0343   0.3111  0.02288   2.9015E-04  8.8447E-05  3.0333E-04   16.953
    38    6   0.0000  -0.0572   0.3111  0.02288   1.3207E-04  2.0685E-05  1.3368E-04    8.902
    39    6   0.0000   0.0114   0.3111  0.02288   4.0283E-04  1.3957E-04  4.2632E-04   19.110
    40    6   0.0000   0.0343   0.3111  0.02288   2.9015E-04  8.8447E-05  3.0333E-04   16.953
    41    6   0.0000   0.0572   0.3111  0.02288   1.3207E-04  2.0685E-05  1.3368E-04    8.901
    42    7   0.0560  -0.0360   0.0206  0.04536   4.8039E-04  4.2292E-04  6.4003E-04   41.359
    43    7   0.0400  -0.0257   0.0618  0.04536   4.8356E-04  4.4819E-04  6.5933E-04   42.826
    44    7   0.0240  -0.0154   0.1029  0.04536   4.8178E-04  4.7431E-04  6.7608E-04   44.552
    45    7   0.0080  -0.0051   0.1441  0.04536   4.7049E-04  4.8401E-04  6.7500E-04   45.811
    46    8   0.0560   0.0360   0.0206  0.04536   4.8039E-04  4.2291E-04  6.4003E-04   41.359
    47    8   0.0400   0.0257   0.0618  0.04536   4.8356E-04  4.4819E-04  6.5932E-04   42.826
    48    8   0.0240   0.0154   0.1029  0.04536   4.8178E-04  4.7431E-04  6.7608E-04   44.552
    49    8   0.0080   0.0051   0.1441  0.04536   4.7049E-04  4.8400E-04  6.7500E-04   45.811



                                        - - - POWER BUDGET - - -

                                           INPUT POWER   = 7.5418E-04 WATTS
                                           RADIATED POWER= 7.5418E-04 WATTS
                                           WIRE LOSS     = 0.0000E+00 WATTS
                                           EFFICIENCY    = 100.00 PERCENT
 ***** INPUT LINE  5  EN   0    0    0    0  0.00000E+00  0.00000E+00  0.00000E+00  0.00000E+00  0.00000E+00  0.00000E+00

 RUN TIME =    35.760
