


                                __________________________________________
                               |                                          |
                               | NUMERICAL ELECTROMAGNETICS CODE (nec2++) |
                               | Translated to 'C++' in Double Precision  |
                               |        Version 1.1.0 [2005-01-20]        |
                               |__________________________________________|



                               ---------------- COMMENTS ----------------
                                Dipole antenna for 80 mtr
                               



                                -------- STRUCTURE SPECIFICATION --------
                                COORDINATES MUST BE INPUT IN
                                METERS OR BE SCALED TO METERS
                                BEFORE STRUCTURE INPUT IS ENDED
  WIRE                                                                                 SEG FIRST  LAST  TAG
   No:        X1         Y1         Z1         X2         Y2         Z2       RADIUS   No:   SEG   SEG  No:

     1    -19.6465     0.0000    20.0000    -0.5000     0.0000    20.0000     0.0010    19     1    19    1
     2     -0.5000     0.0000    20.0000     0.5000     0.0000    20.0000     0.0010     1    20    20    2
     3      0.5000     0.0000    20.0000    19.6465     0.0000    20.0000     0.0010    19    21    39    3

     TOTAL SEGMENTS USED: 39   SEGMENTS IN A SYMMETRIC CELL: 39   SYMMETRY FLAG: 0


                               ---------- SEGMENTATION DATA ----------
                                        COORDINATES IN METERS
                            I+ AND I- INDICATE THE SEGMENTS BEFORE AND AFTER I

   SEG    COORDINATES OF SEGM CENTER     SEGM    ORIENTATION ANGLES    WIRE    CONNECTION DATA   TAG
   No:       X         Y         Z      LENGTH     ALPHA      BETA    RADIUS    I-     I    I+   NO:
     1  -19.1426    0.0000   20.0000    1.0077    0.0000    0.0000    0.0010     0     1     2     1
     2  -18.1349    0.0000   20.0000    1.0077    0.0000    0.0000    0.0010     1     2     3     1
     3  -17.1272    0.0000   20.0000    1.0077    0.0000    0.0000    0.0010     2     3     4     1
     4  -16.1195    0.0000   20.0000    1.0077    0.0000    0.0000    0.0010     3     4     5     1
     5  -15.1118    0.0000   20.0000    1.0077    0.0000    0.0000    0.0010     4     5     6     1
     6  -14.1041    0.0000   20.0000    1.0077    0.0000    0.0000    0.0010     5     6     7     1
     7  -13.0964    0.0000   20.0000    1.0077    0.0000    0.0000    0.0010     6     7     8     1
     8  -12.0886    0.0000   20.0000    1.0077    0.0000    0.0000    0.0010     7     8     9     1
     9  -11.0809    0.0000   20.0000    1.0077    0.0000    0.0000    0.0010     8     9    10     1
    10  -10.0732    0.0000   20.0000    1.0077    0.0000    0.0000    0.0010     9    10    11     1
    11   -9.0655    0.0000   20.0000    1.0077    0.0000    0.0000    0.0010    10    11    12     1
    12   -8.0578    0.0000   20.0000    1.0077    0.0000    0.0000    0.0010    11    12    13     1
    13   -7.0501    0.0000   20.0000    1.0077    0.0000    0.0000    0.0010    12    13    14     1
    14   -6.0424    0.0000   20.0000    1.0077    0.0000    0.0000    0.0010    13    14    15     1
    15   -5.0347    0.0000   20.0000    1.0077    0.0000    0.0000    0.0010    14    15    16     1
    16   -4.0270    0.0000   20.0000    1.0077    0.0000    0.0000    0.0010    15    16    17     1
    17   -3.0193    0.0000   20.0000    1.0077    0.0000    0.0000    0.0010    16    17    18     1
    18   -2.0116    0.0000   20.0000    1.0077    0.0000    0.0000    0.0010    17    18    19     1
    19   -1.0039    0.0000   20.0000    1.0077    0.0000    0.0000    0.0010    18    19    20     1
    20    0.0000    0.0000   20.0000    1.0000    0.0000    0.0000    0.0010    19    20    21     2
    21    1.0039    0.0000   20.0000    1.0077    0.0000    0.0000    0.0010    20    21    22     3
    22    2.0116    0.0000   20.0000    1.00