


                                __________________________________________
                               |                                          |
                               | NUMERICAL ELECTROMAGNETICS CODE (nec2++) |
                               | Translated to 'C++' in Double Precision  |
                               |        Version 1.1.0 [2005-01-20]        |
                               |__________________________________________|



                               ---------------- COMMENTS ----------------
                                NEC-WIN Example
                                Simple dipole antenna in Free Space
                                Optimized for resonance at 300 MHz
                               



                                -------- STRUCTURE SPECIFICATION --------
                                COORDINATES MUST BE INPUT IN
                                METERS OR BE SCALED TO METERS
                                BEFORE STRUCTURE INPUT IS ENDED
  WIRE                                                                                 SEG FIRST  LAST  TAG
   No:        X1         Y1         Z1         X2         Y2         Z2       RADIUS   No:   SEG   SEG  No:

     1      0.0000    -0.2418     0.0000     0.0000     0.2418     0.0000     0.0537     9     1     9    1
     STRUCTURE SCALED BY FACTOR:    1.00000

     TOTAL SEGMENTS USED: 9   SEGMENTS IN A SYMMETRIC CELL: 9   SYMMETRY FLAG: 0


                               ---------- SEGMENTATION DATA ----------
                                        COORDINATES IN METERS
                            I+ AND I- INDICATE THE SEGMENTS BEFORE AND AFTER I

   SEG    COORDINATES OF SEGM CENTER     SEGM    ORIENTATION ANGLES    WIRE    CONNECTION DATA   TAG
   No:       X         Y         Z      LENGTH     ALPHA      BETA    RADIUS    I-     I    I+   NO:
     1    0.0000   -0.2149    0.0000    0.0537    0.0000   90.0000    0.0537     0     1     2     1
     2    0.0000   -0.1612    0.0000    0.0537    0.0000   90.0000    0.0537     1     2     3     1
     3    0.0000   -0.1075    0.0000    0.0537    0.0000   90.0000    0.0537     2     3     4     1
     4    0.0000   -0.0537    0.0000    0.0537    0.0000   90.0000    0.0537     3     4     5     1
     5    0.0000   -0.0000    0.0000    0.0537    0.0000   90.0000    0.0537     4     5     6     1
     6    0.0000    0.0537    0.0000    0.0537    0.0000   90.0000    0.0537     5     6     7     1
     7    0.0000    0.1075    0.0000    0.0537    0.0000   90.0000    0.0537     6     7     8     1
     8    0.0000    0.1612    0.0000    0.0537    0.0000   90.0000    0.0537     7     8     9     1
     9    0.0000    0.2149    0.0000    0.0537    0.0000   90.0000    0.0537     8     9     0     1



*****  DATA CARD N0.   1 EK   0     0     0     0  0.00000E+00  0.00000E+00  0.00000E+00  0.00000E+00  0.00000E+00  0.00000E+00
*****  DATA CARD N0.   2 EX   0     1     5     0  1.00000E+00  0.00000E+00  0.00000E+00  0.00000E+00  0.00000E+00  0.00000E+00
*****  DATA CARD N0.   3 FR   0     1     0     0  3.00000E+02  1.00000E+00  0.00000E+00  0.00000E+00  0.00000E+00  0.00000E+00
*****  DATA CARD N0.   4 RP   0   181     1  1000 -9.00000E+01  0.00000E+00  1.00000E+00  1.00000E+00  0.00000E+00  0.00000E+00


                               --------- FREQUENCY --------
                               FREQUENCY=  3.0000E+02 MHZ
                               WAVELENGTH= 9.9933E-01 METERS


                        APPROXIMATE INTEGRATION EMPLOYED FOR SEGMENTS
                        THAT ARE MORE THAN 1.000 WAVELENGTHS APART
                        THE EXTENDED THIN WIRE KERNEL WILL BE USED



                          ------ STRUCTURE IMPEDANCE LOADING ------
                                 THIS STRUCTURE IS NOT LOADED



                            -------- ANTENNA ENVIRONMENT --------
                            FREE SPACE



                             ---------- MATRIX TIMING ----------
                               FILL= 0 msec  FACTOR: 0 msec


                        --------- ANTENNA INPUT PARAMETERS ---------
  TAG   SEG       VOLTAGE (VOLTS)         CURRENT (AMPS)         IMPEDANCE (OHMS)        ADMITTANCE (MHOS)     POWER
  NO.   NO.     REAL      IMAGINARY     REAL      IMAGINARY     REAL      IMAGINARY    REAL       IMAGINARY   (WATTS)
    1     5  1.0000E+00  0.0000E+00  1.0196E-02  3.7586E-03  8.6345E+01 -3.1829E+01  1.0196E-02  3.7586E-03  5.0980E-03


                           -------- CURRENTS AND LOCATION --------
                                  DISTANCES IN WAVELENGTHS

   SEG  TAG    COORDINATES OF SEGM CENTER     SEGM    ------------- CURRENT (AMPS) -------------
   No:  No:       X         Y         Z      LENGTH     REAL      IMAGINARY    MAGN        PHASE

     1    1    0.0000   -0.2151    0.0000   0.05377  4.0642E-03 -3.1864E-03  5.1643E-03  -38.097
     2    1    0.0000   -0.1613    0.0000   0.05377  6.6779E-03 -4.3381E-03  7.9633E-03  -33.009
     3    1    0.0000   -0.1075    0.0000   0.05377  8.6007E-03 -4.2328E-03  9.5859E-03  -26.204
     4    1    0.0000   -0.0538    0.0000   0.05377  9.7904E-03 -2.7471E-03  1.0169E-02  -15.674
     5    1    0.0000   -0.0000    0.0000   0.05377  1.0196E-02  3.7586E-03  1.0867E-02   20.236
     6    1    0.0000    0.0538    0.0000   0.05377  9.7904E-03 -2.7471E-03  1.0169E-02  -15.674
     7    1    0.0000    0.1075    0.0000   0.05377  8.6007E-03 -4.2328E-03  9.5859E-03  -26.204
     8    1    0.0000    0.1613    0.0000   0.05377  6.6779E-03 -4.3381E-03  7.9633E-03  -33.009
     9    1    0.0000    0.2151    0.0000   0.05377  4.0642E-03 -3.1864E-03  5.1643E-03  -38.097


                               ---------- POWER BUDGET ---------
                               INPUT POWER   =  5.0980E-03 Watts
                               RADIATED POWER=  5.0980E-03 Watts
                               STRUCTURE LOSS=  0.0000E+00 Watts
                               NETWORK LOSS  =  0.0000E+00 Watts
                               EFFICIENCY    =  100.00 Percent


                             ---------- RADIATION PATTERNS -----------

 ---- ANGLES -----     ----- POWER GAINS -----       ---- POLARIZATION ----   ---- E(THETA) ----    ----- E(PHI) ------
  THETA      PHI       VERTC    HORIZ    TOTAL       AXIAL      TILT  SENSE   MAGNITUDE    PHASE    MAGNITUDE     PHASE
 DEGREES   DEGREES        DB       DB       DB       RATIO   DEGREES            VOLTS/M   DEGREES     VOLTS/M   DEGREES
  -90.00      0.00   -999.99     2.47     2.47      0.0000    -90.00 LINEAR  0.0000E+00      0.00  7.3467E-01   -110.13
  -89.00      0.00   -999.99     2.47     2.47      0.0000    -90.00 LINEAR  0.0000E+00      0.00  7.3467E-01   -110.13
  -88.00      0.00   -999.99     2.47     2.47      0.0000    -90.00 LINEAR  0.0000E+00      0.00  7.3467E-01   -110.13
  -87.00      0.00   -999.99     2.47     2.47      0.0000    -90.00 LINEAR  0.0000E+00      0.00  7.3467E-01   -110.13
  -86.00      0.00   -999.99     2.47     2.47      0.0000    -90.00 LINEAR  0.0000E+00      0.00  7.3467E-01   -110.13
  -85.00      0.00   -999.99     2.47     2.47      0.0000    -90.00 LINEAR  0.0000E+00      0.00  7.3467E-01   -110.13
  -84.00      0.00   -999.99     2.47     2.47      0.0000    -90.00 LINEAR  0.0000E+00      0.00  7.3467E-01   -110.13
  -83.00      0.00   -999.99     2.47     2.47      0.0000    -90.00 LINEAR  0.0000E+00      0.00  7.3467E-01   -110.13
  -82.00      0.00   -999.99     2.47     2.47      0.0000    -90.00 LINEAR  0.0000E+00      0.00  7.3467E-01   -110.13
  -81.00      0.00   -999.99     2.47     2.47      0.0000    -90.00 LINEAR  0.0000E+00      0.00  7.3467E-01   -110.13
  -80.00      0.00   -999.99     2.47     2.47      0.0000    -90.00 LINEAR  0.0000E+00      0.00  7.3467E-01   -110.13
  -79.00      0.00   -999.99     2.47     2.47      0.0000    -90.00 LINEAR  0.0000E+00      0.00  7.3467E-01   -110.13
  -78.00      0.00   -999.99     2.47     2.47      0.0000    -90.00 LINEAR  0.0000E+00      0.00  7.3467E-01   -110.13
  -77.00      0.00   -999.99     2.47     2.47      0.0000    -90.00 LINEAR  0.0000E+00      0.00  7.3467E-01   -110.13
  -76.00      0.00   -999.99     2.47     2.47      0.0000    -90.00 LINEAR  0.0000E+00      0.00  7.3467E-01   -110.13
  -75.00      0.00   -999.99     2.47     2.47      0.0000    -90.00 LINEAR  0.0000E+00      0.00  7.3467E-01   -110.13
  -74.00      0.00   -999.99     2.47     2.47      0.0000    -90.00 LINEAR  0.0000E+00      0.00  7.3467E-01   -110.13
  -73.00      0.00   -999.99     2.47     2.47      0.0000    -90.00 LINEAR  0.0000E+00      0.00  7.3467E-01   -110.13
  -72.00      0.00   -999.99     2.47     2.47      0.0000    -90.00 LINEAR  0.0000E+00      0.00  7.3467E-01   -110.13
  -71.00      0.00   -999.99     2.47     2.47      0.0000    -90.00 LINEAR  0.0000E+00      0.00  7.3467E-01   -110.13
  -70.00      0.00   -999.99     2.47     2.47      0.0000    -90.00 LINEAR  0.0000E+00      0.00  7.3467E-01   -110.13
  -69.00      0.00   -999.99     2.47     2.47      0.0000    -90.00 LINEAR  0.0000E+00      0.00  7.3467E-01   -110.13
  -68.00      0.00   -999.99     2.47     2.47      0.0000    -90.00 LINEAR  0.0000E+00      0.00  7.3467E-01   -110.13
  -67.00      0.00   -999.99     2.47     2.47      0.0000    -90.00 LINEAR  0.0000E+00      0.00  7.3467E-01   -110.13
  -66.00      0.00   -999.99     2.47     2.47      0.0000    -90.00 LINEAR  0.0000E+00      0.00  7.3467E-01   -110.13
  -65.00      0.00   -999.99     2.47     2.47      0.0000    -90.00 LINEAR  0.0000E+00      0.00  7.3467E-01   -110.13
  -64.00      0.00   -999.99     2.47     2.47      0.0000    -90.00 LINEAR  0.0000E+00      0.00  7.3467E-01   -110.13
  -63.00      0.00   -999.99     2.47     2.47      0.0000    -90.00 LINEAR  0.0000E+00      0.00  7.3467E-01   -110.13
  -62.00      0.00   -999.99     2.47     2.47      0.0000    -90.00 LINEAR  0.0000E+00      0.00  7.3467E-01   -110.13
  -61.00      0.00   -999.99     2.47     2.47      0.0000    -90.00 LINEAR  0.0000E+00      0.00  7.3467E-01   -110.13
  -60.00      0.00   -999.99     2.47     2.47      0.0000    -90.00 LINEAR  0.0000E+00      0.00  7.3467E-01   -110.13
  -59.00      0.00   -999.99     2.47     2.47      0.0000    -90.00 LINEAR  0.0000E+00      0.00  7.3467E-01   -110.13
  -58.00      0.00   -999.99     2.47     2.47      0.0000    -90.00 LINEAR  0.0000E+00      0.00  7.3467E-01   -110.13
  -57.00      0.00   -999.99     2.47     2.47      0.0000    -90.00 LINEAR  0.0000E+00      0.00  7.3467E-01   -110.13
  -56.00      0.00   -999.99     2.47     2.47      0.0000    -90.00 LINEAR  0.0000E+00      0.00  7.3467E-01   -110.13
  -55.00      0.00   -999.99     2.47     2.47      0.0000    -90.00 LINEAR  0.0000E+00      0.00  7.3467E-01   -110.13
  -54.00      0.00   -999.99     2.47     2.47      0.0000    -90.00 LINEAR  0.0000E+00      0.00  7.3467E-01   -110.13
  -53.00      0.00   -999.99     2.47     2.47      0.0000    -90.00 LINEAR  0.0000E+00      0.00  7.3467E-01   -110.13
  -52.00      0.00   -999.99     2.47     2.47      0.0000    -90.00 LINEAR  0.0000E+00      0.00  7.3467E-01   -110.13
  -51.00      0.00   -999.99     2.47     2.47      0.0000    -90.00 LINEAR  0.0000E+00      0.00  7.3467E-01   -110.13
  -50.00      0.00   -999.99     2.47     2.47      0.0000    -90.00 LINEAR  0.0000E+00      0.00  7.3467E-01   -110.13
  -49.00      0.00   -999.99     2.47     2.47      0.0000    -90.00 LINEAR  0.0000E+00      0.00  7.3467E-01   -110.13
  -48.00      0.00   -999.99     2.47     2.47      0.0000    -90.00 LINEAR  0.0000E+00      0.00  7.3467E-01   -110.13
  -47.00      0.00   -999.99     2.47     2.47      0.0000    -90.00 LINEAR  0.0000E+00      0.00  7.3467E-01   -110.13
  -46.00      0.00   -999.99     2.47     2.47      0.0000    -90.00 LINEAR  0.0000E+00      0.00  7.3467E-01   -110.13
  -45.00      0.00   -999.99     2.47     2.47      0.0000    -90.00 LINEAR  0.0000E+00      0.00  7.3467E-01   -110.13
  -44.00      0.00   -999.99     2.47     2.47      0.0000    -90.00 LINEAR  0.0000E+00      0.00  7.3467E-01   -110.13
  -43.00      0.00   -999.99     2.47     2.47      0.0000    -90.00 LINEAR  0.0000E+00      0.00  7.3467E-01   -110.13
  -42.00      0.00   -999.99     2.47     2.47      0.0000    -90.00 LINEAR  0.0000E+00      0.00  7.3467E-01   -110.13
  -41.00      0.00   -999.99     2.47     2.47      0.0000    -90.00 LINEAR  0.0000E+00      0.00  7.3467E-01   -110.13
  -40.00      0.00   -999.99     2.47     2.47      0.0000    -90.00 LINEAR  0.0000E+00      0.00  7.3467E-01   -110.13
  -39.00      0.00   -999.99     2.47     2.47      0.0000    -90.00 LINEAR  0.0000E+00      0.00  7.3467E-01   -110.13
  -38.00      0.00   -999.99     2.47     2.47      0.0000    -90.00 LINEAR  0.0000E+00      0.00  7.3467E-01   -110.13
  -37.00      0.00   -999.99     2.47     2.47      0.0000    -90.00 LINEAR  0.0000E+00      0.00  7.3467E-01   -110.13
  -36.00      0.00   -999.99     2.47     2.47      0.0000    -90.00 LINEAR  0.0000E+00      0.00  7.3467E-01   -110.13
  -35.00      0.00   -999.99     2.47     2.47      0.0000    -90.00 LINEAR  0.0000E+00      0.00  7.3467E-01   -110.13
  -34.00      0.00   -999.99     2.47     2.47      0.0000    -90.00 LINEAR  0.0000E+00      0.00  7.3467E-01   -110.13
  -33.00      0.00   -999.99     2.47     2.47      0.0000    -90.00 LINEAR  0.0000E+00      0.00  7.3467E-01   -110.13
  -32.00      0.00   -999.99     2.47     2.47      0.0000    -90.00 LINEAR  0.0000E+00      0.00  7.3467E-01   -110.13
  -31.00      0.00   -999.99     2.47     2.47      0.0000    -90.00 LINEAR  0.0000E+00      0.00  7.3467E-01   -110.13
  -30.00      0.00   -999.99     2.47     2.47      0.0000    -90.00 LINEAR  0.0000E+00      0.00  7.3467E-01   -110.13
  -29.00      0.00   -999.99     2.47     2.47      0.0000    -90.00 LINEAR  0.0000E+00      0.00  7.3467E-01   -110.13
  -28.00      0.00   -999.99     2.47     2.47      0.0000    -90.00 LINEAR  0.0000E+00      0.00  7.3467E-01   -110.13
  -27.00      0.00   -999.99     2.47     2.47      0.0000    -90.00 LINEAR  0.0000E+00      0.00  7.3467E-01   -110.13
  -26.00      0.00   -999.99     2.47     2.47      0.0000    -90.00 LINEAR  0.0000E+00      0.00  7.3467E-01   -110.13
  -25.00      0.00   -999.99     2.47     2.47      0.0000    -90.00 LINEAR  0.0000E+00      0.00  7.3467E-01   -110.13
  -24.00      0.00   -999.99     2.47     2.47      0.0000    -90.00 LINEAR  0.0000E+00      0.00  7.3467E-01   -110.13
  -23.00      0.00   -999.99     2.47     2.47      0.0000    -90.00 LINEAR  0.0000E+00      0.00  7.3467E-01   -110.13
  -22.00      0.00   -999.99     2.47     2.47      0.0000    -90.00 LINEAR  0.0000E+00      0.00  7.3467E-01   -110.13
  -21.00      0.00   -999.99     2.47     2.47      0.0000    -90.00 LINEAR  0.0000E+00      0.00  7.3467E-01   -110.13
  -20.00      0.00   -999.99     2.47     2.47      0.0000    -90.00 LINEAR  0.0000E+00      0.00  7.3467E-01   -110.13
  -19.00      0.00   -999.99     2.47     2.47      0.0000    -90.00 LINEAR  0.0000E+00      0.00  7.3467E-01   -110.13
  -18.00      0.00   -999.99     2.47     2.47      0.0000    -90.00 LINEAR  0.0000E+00      0.00  7.3467E-01   -110.13
  -17.00      0.00   -999.99     2.47     2.47      0.0000    -90.00 LINEAR  0.0000E+00      0.00  7.3467E-01   -110.13
  -16.00      0.00   -999.99     2.47     2.47      0.0000    -90.00 LINEAR  0.0000E+00      0.00  7.3467E-01   -110.13
  -15.00      0.00   -999.99     2.47     2.47      0.0000    -90.00 LINEAR  0.0000E+00      0.00  7.3467E-01   -110.13
  -14.00      0.00   -999.99     2.47     2.47      0.0000    -90.00 LINEAR  0.0000E+00      0.00  7.3467E-01   -110.13
  -13.00      0.00   -999.99     2.47     2.47      0.0000    -90.00 LINEAR  0.0000E+00      0.00  7.3467E-01   -110.13
  -12.00      0.00   -999.99     2.47     2.47      0.0000    -90.00 LINEAR  0.0000E+00      0.00  7.3467E-01   -110.13
  -11.00      0.00   -999.99     2.47     2.47      0.0000    -90.00 LINEAR  0.0000E+00      0.00  7.3467E-01   -110.13
  -10.00      0.00   -999.99     2.47     2.47      0.0000    -90.00 LINEAR  0.0000E+00      0.00  7.3467E-01   -110.13
   -9.00      0.00   -999.99     2.47     2.47      0.0000    -90.00 LINEAR  0.0000E+00      0.00  7.3467E-01   -110.13
   -8.00      0.00   -999.99     2.47     2.47      0.0000    -90.00 LINEAR  0.0000E+00      0.00  7.3467E-01   -110.13
   -7.00      0.00   -999.99     2.47     2.47      0.0000    -90.00 LINEAR  0.0000E+00      0.00  7.3467E-01   -110.13
   -6.00      0.00   -999.99     2.47     2.47      0.0000    -90.00 LINEAR  0.0000E+00      0.00  7.3467E-01   -110.13
   -5.00      0.00   -999.99     2.47     2.47      0.0000    -90.00 LINEAR  0.0000E+00      0.00  7.3467E-01   -110.13
   -4.00      0.00   -999.99     2.47     2.47      0.0000    -90.00 LINEAR  0.0000E+00      0.00  7.3467E-01   -110.13
   -3.00      0.00   -999.99     2.47     2.47      0.0000    -90.00 LINEAR  0.0000E+00      0.00  7.3467E-01   -110.13
   -2.00      0.00   -999.99     2.47     2.47      0.0000    -90.00 LINEAR  0.0000E+00      0.00  7.3467E-01   -110.13
   -1.00      0.00   -999.99     2.47     2.47      0.0000    -90.00 LINEAR  0.0000E+00      0.00  7.3467E-01   -110.13
    0.00      0.00   -999.99     2.47     2.47      0.0000    -90.00 LINEAR  0.0000E+00      0.00  7.3467E-01   -110.13
    1.00      0.00   -999.99     2.47     2.47      0.0000    -90.00 LINEAR  0.0000E+00      0.00  7.3467E-01   -110.13
    2.00      0.00   -999.99     2.47     2.47      0.0000    -90.00 LINEAR  0.0000E+00      0.00  7.3467E-01   -110.13
    3.00      0.00   -999.99     2.47     2.47      0.0000    -90.00 LINEAR  0.0000E+00      0.00  7.3467E-01   -110.13
    4.00      0.00   -999.99     2.47     2.47      0.0000    -90.00 LINEAR  0.0000E+00      0.00  7.3467E-01   -110.13
    5.00      0.00   -999.99     2.47     2.47      0.0000    -90.00 LINEAR  0.0000E+00      0.00  7.3467E-01   -110.13
    6.00      0.00   -999.99     2.47     2.47      0.0000    -90.00 LINEAR  0.0000E+00      0.00  7.3467E-01   -110.13
    7.00      0.00   -999.99     2.47     2.47      0.0000    -90.00 LINEAR  0.0000E+00      0.00  7.3467E-01   -110.13
    8.00      0.00   -999.99     2.47     2.47      0.0000    -90.00 LINEAR  0.0000E+00      0.00  7.3467E-01   -110.13
    9.00      0.00   -999.99     2.47     2.47      0.0000    -90.00 LINEAR  0.0000E+00      0.00  7.3467E-01   -110.13
   10.00      0.00   -999.99     2.47     2.47      0.0000    -90.00 LINEAR  0.0000E+00      0.00  7.3467E-01   -110.13
   11.00      0.00   -999.99     2.47     2.47      0.0000    -90.00 LINEAR  0.0000E+00      0.00  7.3467E-01   -110.13
   12.00      0.00   -999.99     2.47     2.47      0.0000    -90.00 LINEAR  0.0000E+00      0.00  7.3467E-01   -110.13
   13.00      0.00   -999.99     2.47     2.47      0.0000    -90.00 LINEAR  0.0000E+00      0.00  7.3467E-01   -110.13
   14.00      0.00   -999.99     2.47     2.47      0.0000    -90.00 LINEAR  0.0000E+00      0.00  7.3467E-01   -110.13
   15.00      0.00   -999.99     2.47     2.47      0.0000    -90.00 LINEAR  0.0000E+00      0.00  7.3467E-01   -110.13
   16.00      0.00   -999.99     2.47     2.47      0.0000    -90.00 LINEAR  0.0000E+00      0.00  7.3467E-01   -110.13
   17.00      0.00   -999.99     2.47     2.47      0.0000    -90.00 LINEAR  0.0000E+00      0.00  7.3467E-01   -110.13
   18.00      0.00   -999.99     2.47     2.47      0.0000    -90.00 LINEAR  0.0000E+00      0.00  7.3467E-01   -110.13
   19.00      0.00   -999.99     2.47     2.47      0.0000    -90.00 LINEAR  0.0000E+00      0.00  7.3467E-01   -110.13
   20.00      0.00   -999.99     2.47     2.47      0.0000    -90.00 LINEAR  0.0000E+00      0.00  7.3467E-01   -110.13
   21.00      0.00   -999.99     2.47     2.47      0.0000    -90.00 LINEAR  0.0000E+00      0.00  7.3467E-01   -110.13
   22.00      0.00   -999.99     2.47     2.47      0.0000    -90.00 LINEAR  0.0000E+00      0.00  7.3467E-01   -110.13
   23.00      0.00   -999.99     2.47     2.47      0.0000    -90.00 LINEAR  0.0000E+00      0.00  7.3467E-01   -110.13
   24.00      0.00   -999.99     2.47     2.47      0.0000    -90.00 LINEAR  0.0000E+00      0.00  7.3467E-01   -110.13
   25.00      0.00   -999.99     2.47     2.47      0.0000    -90.00 LINEAR  0.0000E+00      0.00  7.3467E-01   -110.13
   26.00      0.00   -999.99     2.47     2.47      0.0000    -90.00 LINEAR  0.0000E+00      0.00  7.3467E-01   -110.13
   27.00      0.00   -999.99     2.47     2.47      0.0000    -90.00 LINEAR  0.0000E+00      0.00  7.3467E-01   -110.13
   28.00      0.00   -999.99     2.47     2.47      0.0000    -90.00 LINEAR  0.0000E+00      0.00  7.3467E-01   -110.13
   29.00      0.00   -999.99     2.47     2.47      0.0000    -90.00 LINEAR  0.0000E+00      0.00  7.3467E-01   -110.13
   30.00      0.00   -999.99     2.47     2.47      0.0000    -90.00 LINEAR  0.0000E+00      0.00  7.3467E-01   -110.13
   31.00      0.00   -999.99     2.47     2.47      0.0000    -90.00 LINEAR  0.0000E+00      0.00  7.3467E-01   -110.13
   32.00      0.00   -999.99     2.47     2.47      0.0000    -90.00 LINEAR  0.0000E+00      0.00  7.3467E-01   -110.13
   33.00      0.00   -999.99     2.47     2.47      0.0000    -90.00 LINEAR  0.0000E+00      0.00  7.3467E-01   -110.13
   34.00      0.00   -999.99     2.47     2.47      0.0000    -90.00 LINEAR  0.0000E+00      0.00  7.3467E-01   -110.13
   35.00      0.00   -999.99     2.47     2.47      0.0000    -90.00 LINEAR  0.0000E+00      0.00  7.3467E-01   -110.13
   36.00      0.00   -999.99     2.47     2.47      0.0000    -90.00 LINEAR  0.0000E+00      0.00  7.3467E-01   -110.13
   37.00      0.00   -999.99     2.47     2.47      0.0000    -90.00 LINEAR  0.0000E+00      0.00  7.3467E-01   -110.13
   38.00      0.00   -999.99     2.47     2.47      0.0000    -90.00 LINEAR  0.0000E+00      0.00  7.3467E-01   -110.13
   39.00      0.00   -999.99     2.47     2.47      0.0000    -90.00 LINEAR  0.0000E+00      0.00  7.3467E-01   -110.13
   40.00      0.00   -999.99     2.47     2.47      0.0000    -90.00 LINEAR  0.0000E+00      0.00  7.3467E-01   -110.13
   41.00      0.00   -999.99     2.47     2.47      0.0000    -90.00 LINEAR  0.0000E+00      0.00  7.3467E-01   -110.13
   42.00      0.00   -999.99     2.47     2.47      0.0000    -90.00 LINEAR  0.0000E+00      0.00  7.3467E-01   -110.13
   43.00      0.00   -999.99     2.47     2.47      0.0000    -90.00 LINEAR  0.0000E+00      0.00  7.3467E-01   -110.13
   44.00      0.00   -999.99     2.47     2.47      0.0000    -90.00 LINEAR  0.0000E+00      0.00  7.3467E-01   -110.13
   45.00      0.00   -999.99     2.47     2.47      0.0000    -90.00 LINEAR  0.0000E+00      0.00  7.3467E-01   -110.13
   46.00      0.00   -999.99     2.47     2.47      0.0000    -90.00 LINEAR  0.0000E+00      0.00  7.3467E-01   -110.13
   47.00      0.00   -999.99     2.47     2.47      0.0000    -90.00 LINEAR  0.0000E+00      0.00  7.3467E-01   -110.13
   48.00      0.00   -999.99     2.47     2.47      0.0000    -90.00 LINEAR  0.0000E+00      0.00  7.3467E-01   -110.13
   49.00      0.00   -999.99     2.47     2.47      0.0000    -90.00 LINEAR  0.0000E+00      0.00  7.3467E-01   -110.13
   50.00      0.00   -999.99     2.47     2.47      0.0000    -90.00 LINEAR  0.0000E+00      0.00  7.3467E-01   -110.13
   51.00      0.00   -999.99     2.47     2.47      0.0000    -90.00 LINEAR  0.0000E+00      0.00  7.3467E-01   -110.13
   52.00      0.00   -999.99     2.47     2.47      0.0000    -90.00 LINEAR  0.0000E+00      0.00  7.3467E-01   -110.13
   53.00      0.00   -999.99     2.47     2.47      0.0000    -90.00 LINEAR  0.0000E+00      0.00  7.3467E-01   -110.13
   54.00      0.00   -999.99     2.47     2.47      0.0000    -90.00 LINEAR  0.0000E+00      0.00  7.3467E-01   -110.13
   55.00      0.00   -999.99     2.47     2.47      0.0000    -90.00 LINEAR  0.0000E+00      0.00  7.3467E-01   -110.13
   56.00      0.00   -999.99     2.47     2.47      0.0000    -90.00 LINEAR  0.0000E+00      0.00  7.3467E-01   -110.13
   57.00      0.00   -999.99     2.47     2.47      0.0000    -90.00 LINEAR  0.0000E+00      0.00  7.3467E-01   -110.13
   58.00      0.00   -999.99     2.47     2.47      0.0000    -90.00 LINEAR  0.0000E+00      0.00  7.3467E-01   -110.13
   59.00      0.00   -999.99     2.47     2.47      0.0000    -90.00 LINEAR  0.0000E+00      0.00  7.3467E-01   -110.13
   60.00      0.00   -999.99     2.47     2.47      0.0000    -90.00 LINEAR  0.0000E+00      0.00  7.3467E-01   -110.13
   61.00      0.00   -999.99     2.47     2.47      0.0000    -90.00 LINEAR  0.0000E+00      0.00  7.3467E-01   -110.13
   62.00      0.00   -999.99     2.47     2.47      0.0000    -90.00 LINEAR  0.0000E+00      0.00  7.3467E-01   -110.13
   63.00      0.00   -999.99     2.47     2.47      0.0000    -90.00 LINEAR  0.0000E+00      0.00  7.3467E-01   -110.13
   64.00      0.00   -999.99     2.47     2.47      0.0000    -90.00 LINEAR  0.0000E+00      0.00  7.3467E-01   -110.13
   65.00      0.00   -999.99     2.47     2.47      0.0000    -90.00 LINEAR  0.0000E+00      0.00  7.3467E-01   -110.13
   66.00      0.00   -999.99     2.47     2.47      0.0000    -90.00 LINEAR  0.0000E+00      0.00  7.3467E-01   -110.13
   67.00      0.00   -999.99     2.47     2.47      0.0000    -90.00 LINEAR  0.0000E+00      0.00  7.3467E-01   -110.13
   68.00      0.00   -999.99     2.47     2.47      0.0000    -90.00 LINEAR  0.0000E+00      0.00  7.3467E-01   -110.13
   69.00      0.00   -999.99     2.47     2.47      0.0000    -90.00 LINEAR  0.0000E+00      0.00  7.3467E-01   -110.13
   70.00      0.00   -999.99     2.47     2.47      0.0000    -90.00 LINEAR  0.0000E+00      0.00  7.3467E-01   -110.13
   71.00      0.00   -999.99     2.47     2.47      0.0000    -90.00 LINEAR  0.0000E+00      0.00  7.3467E-01   -110.13
   72.00      0.00   -999.99     2.47     2.47      0.0000    -90.00 LINEAR  0.0000E+00      0.00  7.3467E-01   -110.13
   73.00      0.00   -999.99     2.47     2.47      0.0000    -90.00 LINEAR  0.0000E+00      0.00  7.3467E-01   -110.13
   74.00      0.00   -999.99     2.47     2.47      0.0000    -90.00 LINEAR  0.0000E+00      0.00  7.3467E-01   -110.13
   75.00      0.00   -999.99     2.47     2.47      0.0000    -90.00 LINEAR  0.0000E+00      0.00  7.3467E-01   -110.13
   76.00      0.00   -999.99     2.47     2.47      0.0000    -90.00 LINEAR  0.0000E+00      0.00  7.3467E-01   -110.13
   77.00      0.00   -999.99     2.47     2.47      0.0000    -90.00 LINEAR  0.0000E+00      0.00  7.3467E-01   -110.13
   78.00      0.00   -999.99     2.47     2.47      0.0000    -90.00 LINEAR  0.0000E+00      0.00  7.3467E-01   -110.13
   79.00      0.00   -999.99     2.47     2.47      0.0000    -90.00 LINEAR  0.0000E+00      0.00  7.3467E-01   -110.13
   80.00      0.00   -999.99     2.47     2.47      0.0000    -90.00 LINEAR  0.0000E+00      0.00  7.3467E-01   -110.13
   81.00      0.00   -999.99     2.47     2.47      0.0000    -90.00 LINEAR  0.0000E+00      0.00  7.3467E-01   -110.13
   82.00      0.00   -999.99     2.47     2.47      0.0000    -90.00 LINEAR  0.0000E+00      0.00  7.3467E-01   -110.13
   83.00      0.00   -999.99     2.47     2.47      0.0000    -90.00 LINEAR  0.0000E+00      0.00  7.3467E-01   -110.13
   84.00      0.00   -999.99     2.47     2.47      0.0000    -90.00 LINEAR  0.0000E+00      0.00  7.3467E-01   -110.13
   85.00      0.00   -999.99     2.47     2.47      0.0000    -90.00 LINEAR  0.0000E+00      0.00  7.3467E-01   -110.13
   86.00      0.00   -999.99     2.47     2.47      0.0000    -90.00 LINEAR  0.0000E+00      0.00  7.3467E-01   -110.13
   87.00      0.00   -999.99     2.47     2.47      0.0000    -90.00 LINEAR  0.0000E+00      0.00  7.3467E-01   -110.13
   88.00      0.00   -999.99     2.47     2.47      0.0000    -90.00 LINEAR  0.0000E+00      0.00  7.3467E-01   -110.13
   89.00      0.00   -999.99     2.47     2.47      0.0000    -90.00 LINEAR  0.0000E+00      0.00  7.3467E-01   -110.13
   90.00      0.00   -999.99     2.47     2.47      0.0000    -90.00 LINEAR  0.0000E+00      0.00  7.3467E-01   -110.13



*****  DATA CARD N0.   5 RP   0     1   360  1000  9.00000E+01  0.00000E+00  1.00000E+00  1.00000E+00  0.00000E+00  0.00000E+00


                             ---------- RADIATION PATTERNS -----------

 ---- ANGLES -----     ----- POWER GAINS -----       ---- POLARIZATION ----   ---- E(THETA) ----    ----- E(PHI) ------
  THETA      PHI       VERTC    HORIZ    TOTAL       AXIAL      TILT  SENSE   MAGNITUDE    PHASE    MAGNITUDE     PHASE
 DEGREES   DEGREES        DB       DB       DB       RATIO   DEGREES            VOLTS/M   DEGREES     VOLTS/M   DEGREES
   90.00      0.00   -999.99     2.47     2.47      0.0000    -90.00 LINEAR  0.0000E+00      0.00  7.3467E-01   -110.13
   90.00      1.00   -999.99     2.47     2.47      0.0000    -90.00 LINEAR  6.5429E-14     69.87  7.3449E-01   -110.13
   90.00      2.00   -999.99     2.46     2.46      0.0000    -90.00 LINEAR  1.3080E-13     69.88  7.3395E-01   -110.12
   90.00      3.00   -999.99     2.45     2.45      0.0000    -90.00 LINEAR  1.9606E-13     69.88  7.3306E-01   -110.12
   90.00      4.00   -999.99     2.44     2.44      0.0000    -90.00 LINEAR  2.6115E-13     69.89  7.3180E-01   -110.11
   90.00      5.00   -999.99     2.42     2.42      0.0000    -90.00 LINEAR  3.2602E-13     69.90  7.3019E-01   -110.10
   90.00      6.00   -999.99     2.39     2.39      0.0000    -90.00 LINEAR  3.9061E-13     69.92  7.2822E-01   -110.08
   90.00      7.00   -999.99     2.37     2.37      0.0000    -90.00 LINEAR  4.5487E-13     69.93  7.2591E-01   -110.07
   90.00      8.00   -999.99     2.33     2.33      0.0000    -90.00 LINEAR  5.1874E-13     69.95  7.2325E-01   -110.05
   90.00      9.00   -999.99     2.30     2.30      0.0000    -90.00 LINEAR  5.8217E-13     69.97  7.2024E-01   -110.03
   90.00     10.00   -999.99     2.26     2.26      0.0000    -90.00 LINEAR  6.4511E-13     69.99  7.1690E-01   -110.01
   90.00     11.00   -999.99     2.21     2.21      0.0000    -90.00 LINEAR  7.0751E-13     70.02  7.1322E-01   -109.98
   90.00     12.00   -999.99     2.16     2.16      0.0000    -90.00 LINEAR  7.6933E-13     70.04  7.0921E-01   -109.96
   90.00     13.00   -999.99     2.11     2.11      0.0000    -90.00 LINEAR  8.3050E-13     70.07  7.0488E-01   -109.93
   90.00     14.00   -999.99     2.05     2.05      0.0000    -90.00 LINEAR  8.9100E-13     70.10  7.0024E-01   -109.90
   90.00     15.00   -999.99     1.99     1.99      0.0000    -90.00 LINEAR  9.5076E-13     70.14  6.9528E-01   -109.86
   90.00     16.00   -999.99     1.92     1.92      0.0000    -90.00 LINEAR  1.0098E-12     70.18  6.9002E-01   -109.82
   90.00     17.00   -999.99     1.85     1.85      0.0000    -90.00 LINEAR  1.0679E-12     70.21  6.8446E-01   -109.79
   90.00     18.00   -999.99     1.78     1.78      0.0000    -90.00 LINEAR  1.1253E-12     70.25  6.7862E-01   -109.75
   90.00     19.00   -999.99     1.70     1.70      0.0000    -90.00 LINEAR  1.1817E-12     70.30  6.7250E-01   -109.70
   90.00     20.00   -999.99     1.62     1.62      0.0000    -90.00 LINEAR  1.2373E-12     70.34  6.6610E-01   -109.66
   90.00     21.00   -999.99     1.53     1.53      0.0000    -90.00 LINEAR  1.2919E-12     70.39  6.5944E-01   -109.61
   90.00     22.00   -999.99     1.44     1.44      0.0000    -90.00 LINEAR  1.3454E-12     70.44  6.5252E-01   -109.56
   90.00     23.00   -999.99     1.34     1.34      0.0000    -90.00 LINEAR  1.3980E-12     70.49  6.4536E-01   -109.51
   90.00     24.00   -999.99     1.24     1.24      0.0000    -90.00 LINEAR  1.4496E-12     70.54  6.3796E-01   -109.46
   90.00     25.00   -999.99     1.14     1.14      0.0000    -90.00 LINEAR  1.5000E-12     70.60  6.3034E-01   -109.40
   90.00     26.00   -999.99     1.03     1.03      0.0000    -90.00 LINEAR  1.5494E-12     70.66  6.2249E-01   -109.34
   90.00     27.00   -999.99     0.92     0.92      0.0000    -90.00 LINEAR  1.5977E-12     70.71  6.1444E-01   -109.29
   90.00     28.00   -999.99     0.80     0.80      0.0000    -90.00 LINEAR  1.6449E-12     70.77  6.0618E-01   -109.23
   90.00     29.00   -999.99     0.68     0.68      0.0000    -90.00 LINEAR  1.6909E-12     70.84  5.9774E-01   -109.16
   90.00     30.00   -999.99     0.55     0.55      0.0000    -90.00 LINEAR  1.7358E-12     70.90  5.8912E-01   -109.10
   90.00     31.00   -999.99     0.42     0.42      0.0000    -90.00 LINEAR  1.7795E-12     70.97  5.8033E-01   -109.03
   90.00     32.00   -999.99     0.29     0.29      0.0000    -90.00 LINEAR  1.8221E-12     71.04  5.7137E-01   -108.96
   90.00     33.00   -999.99     0.15     0.15      0.0000    -90.00 LINEAR  1.8635E-12     71.10  5.6227E-01   -108.90
   90.00     34.00   -999.99     0.00     0.00      0.0000    -90.00 LINEAR  1.9037E-12     71.18  5.5302E-01   -108.82
   90.00     35.00   -999.99    -0.15    -0.15      0.0000    -90.00 LINEAR  1.9427E-12     71.25  5.4364E-01   -108.75
   90.00     36.00   -999.99    -0.30    -0.30      0.0000    -90.00 LINEAR  1.9805E-12     71.32  5.3414E-01   -108.68
   90.00     37.00   -999.99    -0.46    -0.46      0.0000    -90.00 LINEAR  2.0172E-12     71.40  5.2453E-01   -108.60
   90.00     38.00   -999.99    -0.62    -0.62      0.0000    -90.00 LINEAR  2.0527E-12     71.47  5.1481E-01   -108.53
   90.00     39.00   -999.99    -0.79    -0.79      0.0000    -90.00 LINEAR  2.0870E-12     71.55  5.0500E-01   -108.45
   90.00     40.00   -999.99    -0.96    -0.96      0.0000    -90.00 LINEAR  2.1201E-12     71.63  4.9509E-01   -108.37
   90.00     41.00   -999.99    -1.14    -1.14      0.0000    -90.00 LINEAR  2.1521E-12     71.71  4.8511E-01   -108.29
   90.00     42.00   -999.99    -1.32    -1.32      0.0000    -90.00 LINEAR  2.1830E-12     71.79  4.7506E-01   -108.21
   90.00     43.00   -999.99    -1.50    -1.50      0.0000    -90.00 LINEAR  2.2127E-12     71.87  4.6495E-01   -108.13
   90.00     44.00   -999.99    -1.70    -1.70      0.0000    -90.00 LINEAR  2.2413E-12     71.95  4.5479E-01   -108.05
   90.00     45.00   -999.99    -1.89    -1.89      0.0000    -90.00 LINEAR  2.2688E-12     72.03  4.4457E-01   -107.97
   90.00     46.00   -999.99    -2.10    -2.10      0.0000    -90.00 LINEAR  2.2953E-12     72.12  4.3432E-01   -107.88
   90.00     47.00   -999.99    -2.30    -2.30      0.0000    -90.00 LINEAR  2.3207E-12     72.20  4.2404E-01   -107.80
   90.00     48.00   -999.99    -2.52    -2.52      0.0000    -90.00 LINEAR  2.3450E-12     72.29  4.1373E-01   -107.71
   90.00     49.00   -999.99    -2.74    -2.74      0.0000    -90.00 LINEAR  2.3683E-12     72.37  4.0340E-01   -107.63
   90.00     50.00   -999.99    -2.96    -2.96      0.0000    -90.00 LINEAR  2.3906E-12     72.45  3.9306E-01   -107.55
   90.00     51.00   -999.99    -3.20    -3.20      0.0000    -90.00 LINEAR  2.4119E-12     72.54  3.8271E-01   -107.46
   90.00     52.00   -999.99    -3.43    -3.43      0.0000    -90.00 LINEAR  2.4322E-12     72.62  3.7235E-01   -107.38
   90.00     53.00   -999.99    -3.68    -3.68      0.0000    -90.00 LINEAR  2.4516E-12     72.71  3.6200E-01   -107.29
   90.00     54.00   -999.99    -3.93    -3.93      0.0000    -90.00 LINEAR  2.4701E-12     72.79  3.5166E-01   -107.21
   90.00     55.00   -999.99    -4.19    -4.19      0.0000    -90.00 LINEAR  2.4878E-12     72.87  3.4133E-01   -107.13
   90.00     56.00   -999.99    -4.46    -4.46      0.0000    -90.00 LINEAR  2.5045E-12     72.96  3.3102E-01   -107.04
   90.00     57.00   -999.99    -4.73    -4.73      0.0000    -90.00 LINEAR  2.5204E-12     73.04  3.2072E-01   -106.96
   90.00     58.00   -999.99    -5.01    -5.01      0.0000    -90.00 LINEAR  2.5355E-12     73.12  3.1045E-01   -106.88
   90.00     59.00   -999.99    -5.30    -5.30      0.0000    -90.00 LINEAR  2.5498E-12     73.20  3.0021E-01   -106.80
   90.00     60.00   -999.99    -5.60    -5.60      0.0000    -90.00 LINEAR  2.5634E-12     73.28  2.9000E-01   -106.72
   90.00     61.00   -999.99    -5.92    -5.92      0.0000    -90.00 LINEAR  2.5762E-12     73.36  2.7981E-01   -106.64
   90.00     62.00   -999.99    -6.24    -6.24      0.0000    -90.00 LINEAR  2.5883E-12     73.44  2.6967E-01   -106.56
   90.00     63.00   -999.99    -6.57    -6.57      0.0000    -90.00 LINEAR  2.5997E-12     73.52  2.5956E-01   -106.48
   90.00     64.00   -999.99    -6.91    -6.91      0.0000    -90.00 LINEAR  2.6105E-12     73.59  2.4948E-01   -106.41
   90.00     65.00   -999.99    -7.27    -7.27      0.0000    -90.00 LINEAR  2.6206E-12     73.66  2.3945E-01   -106.34
   90.00     66.00   -999.99    -7.64    -7.64      0.0000    -90.00 LINEAR  2.6301E-12     73.74  2.2945E-01   -106.26
   90.00     67.00   -999.99    -8.02    -8.02      0.0000    -90.00 LINEAR  2.6390E-12     73.80  2.1950E-01   -106.20
   90.00     68.00   -999.99    -8.43    -8.43      0.0000    -90.00 LINEAR  2.6473E-12     73.87  2.0958E-01   -106.13
   90.00     69.00   -999.99    -8.84    -8.84      0.0000    -90.00 LINEAR  2.6551E-12     73.94  1.9971E-01   -106.06
   90.00     70.00   -999.99    -9.28    -9.28      0.0000    -90.00 LINEAR  2.6624E-12     74.00  1.8988E-01   -106.00
   90.00     71.00   -999.99    -9.74    -9.74      0.0000    -90.00 LINEAR  2.6692E-12     74.06  1.8009E-01   -105.94
   90.00     72.00   -999.99   -10.23   -10.23      0.0000    -90.00 LINEAR  2.6755E-12     74.12  1.7034E-01   -105.88
   90.00     73.00   -999.99   -10.74   -10.74      0.0000    -90.00 LINEAR  2.6814E-12     74.18  1.6063E-01   -105.82
   90.00     74.00   -999.99   -11.28   -11.28      0.0000    -90.00 LINEAR  2.6868E-12     74.23  1.5096E-01   -105.77
   90.00     75.00   -999.99   -11.85   -11.85      0.0000    -90.00 LINEAR  2.6918E-12     74.28  1.4133E-01   -105.72
   90.00     76.00   -999.99   -12.46   -12.46      0.0000    -90.00 LINEAR  2.6963E-12     74.33  1.3173E-01   -105.67
   90.00     77.00   -999.99   -13.11   -13.11      0.0000    -90.00 LINEAR  2.7005E-12     74.37  1.2217E-01   -105.63
   90.00     78.00   -999.99   -13.82   -13.82      0.0000    -90.00 LINEAR  2.7044E-12     74.42  1.1264E-01   -105.58
   90.00     79.00   -999.99   -14.58   -14.58      0.0000    -90.00 LINEAR  2.7078E-12     74.46  1.0314E-01   -105.54
   90.00     80.00   -999.99   -15.42   -15.42      0.0000    -90.00 LINEAR  2.7109E-12     74.49  9.3665E-02   -105.51
   90.00     81.00   -999.99   -16.34   -16.34      0.0000    -90.00 LINEAR  2.7137E-12     74.52  8.4220E-02   -105.48
   90.00     82.00   -999.99   -17.37   -17.37      0.0000    -90.00 LINEAR  2.7162E-12     74.55  7.4799E-02   -105.45
   90.00     83.00   -999.99   -18.54   -18.54      0.0000    -90.00 LINEAR  2.7183E-12     74.58  6.5400E-02   -105.42
   90.00     84.00   -999.99   -19.89   -19.89      0.0000    -90.00 LINEAR  2.7201E-12     74.60  5.6021E-02   -105.40
   90.00     85.00   -999.99   -21.47   -21.47      0.0000    -90.00 LINEAR  2.7217E-12     74.62  4.6658E-02   -105.38
   90.00     86.00   -999.99   -23.42   -23.42      0.0000    -90.00 LINEAR  2.7229E-12     74.64  3.7310E-02   -105.36
   90.00     87.00   -999.99   -25.92   -25.92      0.0000    -90.00 LINEAR  2.7239E-12     74.65  2.7972E-02   -105.35
   90.00     88.00   -999.99   -29.44   -29.44      0.0000    -90.00 LINEAR  2.7246E-12     74.66  1.8643E-02   -105.34
   90.00     89.00   -999.99   -35.46   -35.46      0.0000    -90.00 LINEAR  2.7250E-12     74.66  9.3203E-03   -105.34
   90.00     90.00   -999.99  -999.99  -999.99      0.0000      0.00         2.7251E-12     74.67  2.7251E-12     74.67
   90.00     91.00   -999.99   -35.46   -35.46      0.0000     90.00 LINEAR  2.7250E-12     74.66  9.3203E-03     74.66
   90.00     92.00   -999.99   -29.44   -29.44      0.0000     90.00 LINEAR  2.7246E-12     74.66  1.8643E-02     74.66
   90.00     93.00   -999.99   -25.92   -25.92      0.0000     90.00 LINEAR  2.7239E-12     74.65  2.7972E-02     74.65
   90.00     94.00   -999.99   -23.42   -23.42      0.0000     90.00 LINEAR  2.7229E-12     74.64  3.7310E-02     74.64
   90.00     95.00   -999.99   -21.47   -21.47      0.0000     90.00 LINEAR  2.7217E-12     74.62  4.6658E-02     74.62
   90.00     96.00   -999.99   -19.89   -19.89      0.0000     90.00 LINEAR  2.7201E-12     74.60  5.6021E-02     74.60
   90.00     97.00   -999.99   -18.54   -18.54      0.0000     90.00 LINEAR  2.7183E-12     74.58  6.5400E-02     74.58
   90.00     98.00   -999.99   -17.37   -17.37      0.0000     90.00 LINEAR  2.7162E-12     74.55  7.4799E-02     74.55
   90.00     99.00   -999.99   -16.34   -16.34      0.0000     90.00 LINEAR  2.7137E-12     74.52  8.4220E-02     74.52
   90.00    100.00   -999.99   -15.42   -15.42      0.0000     90.00 LINEAR  2.7109E-12     74.49  9.3665E-02     74.49
   90.00    101.00   -999.99   -14.58   -14.58      0.0000     90.00 LINEAR  2.7078E-12     74.46  1.0314E-01     74.46
   90.00    102.00   -999.99   -13.82   -13.82      0.0000     90.00 LINEAR  2.7044E-12     74.42  1.1264E-01     74.42
   90.00    103.00   -999.99   -13.11   -13.11      0.0000     90.00 LINEAR  2.7005E-12     74.37  1.2217E-01     74.37
   90.00    104.00   -999.99   -12.46   -12.46      0.0000     90.00 LINEAR  2.6963E-12     74.33  1.3173E-01     74.33
   90.00    105.00   -999.99   -11.85   -11.85      0.0000     90.00 LINEAR  2.6918E-12     74.28  1.4133E-01     74.28
   90.00    106.00   -999.99   -11.28   -11.28      0.0000     90.00 LINEAR  2.6868E-12     74.23  1.5096E-01     74.23
   90.00    107.00   -999.99   -10.74   -10.74      0.0000     90.00 LINEAR  2.6814E-12     74.18  1.6063E-01     74.18
   90.00    108.00   -999.99   -10.23   -10.23      0.0000     90.00 LINEAR  2.6755E-12     74.12  1.7034E-01     74.12
   90.00    109.00   -999.99    -9.74    -9.74      0.0000     90.00 LINEAR  2.6692E-12     74.06  1.8009E-01     74.06
   90.00    110.00   -999.99    -9.28    -9.28      0.0000     90.00 LINEAR  2.6624E-12     74.00  1.8988E-01     74.00
   90.00    111.00   -999.99    -8.84    -8.84      0.0000     90.00 LINEAR  2.6551E-12     73.94  1.9971E-01     73.94
   90.00    112.00   -999.99    -8.43    -8.43      0.0000     90.00 LINEAR  2.6473E-12     73.87  2.0958E-01     73.87
   90.00    113.00   -999.99    -8.02    -8.02      0.0000     90.00 LINEAR  2.6390E-12     73.80  2.1950E-01     73.80
   90.00    114.00   -999.99    -7.64    -7.64      0.0000     90.00 LINEAR  2.6301E-12     73.74  2.2945E-01     73.74
   90.00    115.00   -999.99    -7.27    -7.27      0.0000     90.00 LINEAR  2.6206E-12     73.66  2.3945E-01     73.66
   90.00    116.00   -999.99    -6.91    -6.91      0.0000     90.00 LINEAR  2.6105E-12     73.59  2.4948E-01     73.59
   90.00    117.00   -999.99    -6.57    -6.57      0.0000     90.00 LINEAR  2.5997E-12     73.52  2.5956E-01     73.52
   90.00    118.00   -999.99    -6.24    -6.24      0.0000     90.00 LINEAR  2.5883E-12     73.44  2.6967E-01     73.44
   90.00    119.00   -999.99    -5.92    -5.92      0.0000     90.00 LINEAR  2.5762E-12     73.36  2.7981E-01     73.36
   90.00    120.00   -999.99    -5.60    -5.60      0.0000     90.00 LINEAR  2.5634E-12     73.28  2.9000E-01     73.28
   90.00    121.00   -999.99    -5.30    -5.30      0.0000     90.00 LINEAR  2.5498E-12     73.20  3.0021E-01     73.20
   90.00    122.00   -999.99    -5.01    -5.01      0.0000     90.00 LINEAR  2.5355E-12     73.12  3.1045E-01     73.12
   90.00    123.00   -999.99    -4.73    -4.73      0.0000     90.00 LINEAR  2.5204E-12     73.04  3.2072E-01     73.04
   90.00    124.00   -999.99    -4.46    -4.46      0.0000     90.00 LINEAR  2.5045E-12     72.96  3.3102E-01     72.96
   90.00    125.00   -999.99    -4.19    -4.19      0.0000     90.00 LINEAR  2.4878E-12     72.87  3.4133E-01     72.87
   90.00    126.00   -999.99    -3.93    -3.93      0.0000     90.00 LINEAR  2.4701E-12     72.79  3.5166E-01     72.79
   90.00    127.00   -999.99    -3.68    -3.68      0.0000     90.00 LINEAR  2.4516E-12     72.71  3.6200E-01     72.71
   90.00    128.00   -999.99    -3.43    -3.43      0.0000     90.00 LINEAR  2.4322E-12     72.62  3.7235E-01     72.62
   90.00    129.00   -999.99    -3.20    -3.20      0.0000     90.00 LINEAR  2.4119E-12     72.54  3.8271E-01     72.54
   90.00    130.00   -999.99    -2.96    -2.96      0.0000     90.00 LINEAR  2.3906E-12     72.45  3.9306E-01     72.45
   90.00    131.00   -999.99    -2.74    -2.74      0.0000     90.00 LINEAR  2.3683E-12     72.37  4.0340E-01     72.37
   90.00    132.00   -999.99    -2.52    -2.52      0.0000     90.00 LINEAR  2.3450E-12     72.29  4.1373E-01     72.29
   90.00    133.00   -999.99    -2.30    -2.30      0.0000     90.00 LINEAR  2.3207E-12     72.20  4.2404E-01     72.20
   90.00    134.00   -999.99    -2.10    -2.10      0.0000     90.00 LINEAR  2.2953E-12     72.12  4.3432E-01     72.12
   90.00    135.00   -999.99    -1.89    -1.89      0.0000     90.00 LINEAR  2.2688E-12     72.03  4.4457E-01     72.03
   90.00    136.00   -999.99    -1.70    -1.70      0.0000     90.00 LINEAR  2.2413E-12     71.95  4.5479E-01     71.95
   90.00    137.00   -999.99    -1.50    -1.50      0.0000     90.00 LINEAR  2.2127E-12     71.87  4.6495E-01     71.87
   90.00    138.00   -999.99    -1.32    -1.32      0.0000     90.00 LINEAR  2.1830E-12     71.79  4.7506E-01     71.79
   90.00    139.00   -999.99    -1.14    -1.14      0.0000     90.00 LINEAR  2.1521E-12     71.71  4.8511E-01     71.71
   90.00    140.00   -999.99    -0.96    -0.96      0.0000     90.00 LINEAR  2.1201E-12     71.63  4.9509E-01     71.63
   90.00    141.00   -999.99    -0.79    -0.79      0.0000     90.00 LINEAR  2.0870E-12     71.55  5.0500E-01     71.55
   90.00    142.00   -999.99    -0.62    -0.62      0.0000     90.00 LINEAR  2.0527E-12     71.47  5.1481E-01     71.47
   90.00    143.00   -999.99    -0.46    -0.46      0.0000     90.00 LINEAR  2.0172E-12     71.40  5.2453E-01     71.40
   90.00    144.00   -999.99    -0.30    -0.30      0.0000     90.00 LINEAR  1.9805E-12     71.32  5.3414E-01     71.32
   90.00    145.00   -999.99    -0.15    -0.15      0.0000     90.00 LINEAR  1.9427E-12     71.25  5.4364E-01     71.25
   90.00    146.00   -999.99     0.00     0.00      0.0000     90.00 LINEAR  1.9037E-12     71.18  5.5302E-01     71.18
   90.00    147.00   -999.99     0.15     0.15      0.0000     90.00 LINEAR  1.8635E-12     71.10  5.6227E-01     71.10
   90.00    148.00   -999.99     0.29     0.29      0.0000     90.00 LINEAR  1.8221E-12     71.04  5.7137E-01     71.04
   90.00    149.00   -999.99     0.42     0.42      0.0000     90.00 LINEAR  1.7795E-12     70.97  5.8033E-01     70.97
   90.00    150.00   -999.99     0.55     0.55      0.0000     90.00 LINEAR  1.7358E-12     70.90  5.8912E-01     70.90
   90.00    151.00   -999.99     0.68     0.68      0.0000     90.00 LINEAR  1.6909E-12     70.84  5.9774E-01     70.84
   90.00    152.00   -999.99     0.80     0.80      0.0000     90.00 LINEAR  1.6449E-12     70.77  6.0618E-01     70.77
   90.00    153.00   -999.99     0.92     0.92      0.0000     90.00 LINEAR  1.5977E-12     70.71  6.1444E-01     70.71
   90.00    154.00   -999.99     1.03     1.03      0.0000     90.00 LINEAR  1.5494E-12     70.66  6.2249E-01     70.66
   90.00    155.00   -999.99     1.14     1.14      0.0000     90.00 LINEAR  1.5000E-12     70.60  6.3034E-01     70.60
   90.00    156.00   -999.99     1.24     1.24      0.0000     90.00 LINEAR  1.4496E-12     70.54  6.3796E-01     70.54
   90.00    157.00   -999.99     1.34     1.34      0.0000     90.00 LINEAR  1.3980E-12     70.49  6.4536E-01     70.49
   90.00    158.00   -999.99     1.44     1.44      0.0000     90.00 LINEAR  1.3454E-12     70.44  6.5252E-01     70.44
   90.00    159.00   -999.99     1.53     1.53      0.0000     90.00 LINEAR  1.2919E-12     70.39  6.5944E-01     70.39
   90.00    160.00   -999.99     1.62     1.62      0.0000     90.00 LINEAR  1.2373E-12     70.34  6.6610E-01     70.34
   90.00    161.00   -999.99     1.70     1.70      0.0000     90.00 LINEAR  1.1817E-12     70.30  6.7250E-01     70.30
   90.00    162.00   -999.99     1.78     1.78      0.0000     90.00 LINEAR  1.1253E-12     70.25  6.7862E-01     70.25
   90.00    163.00   -999.99     1.85     1.85      0.0000     90.00 LINEAR  1.0679E-12     70.21  6.8446E-01     70.21
   90.00    164.00   -999.99     1.92     1.92      0.0000     90.00 LINEAR  1.0098E-12     70.18  6.9002E-01     70.18
   90.00    165.00   -999.99     1.99     1.99      0.0000     90.00 LINEAR  9.5076E-13     70.14  6.9528E-01     70.14
   90.00    166.00   -999.99     2.05     2.05      0.0000     90.00 LINEAR  8.9100E-13     70.10  7.0024E-01     70.10
   90.00    167.00   -999.99     2.11     2.11      0.0000     90.00 LINEAR  8.3050E-13     70.07  7.0488E-01     70.07
   90.00    168.00   -999.99     2.16     2.16      0.0000     90.00 LINEAR  7.6933E-13     70.04  7.0921E-01     70.04
   90.00    169.00   -999.99     2.21     2.21      0.0000     90.00 LINEAR  7.0751E-13     70.02  7.1322E-01     70.02
   90.00    170.00   -999.99     2.26     2.26      0.0000     90.00 LINEAR  6.4511E-13     69.99  7.1690E-01     69.99
   90.00    171.00   -999.99     2.30     2.30      0.0000     90.00 LINEAR  5.8217E-13     69.97  7.2024E-01     69.97
   90.00    172.00   -999.99     2.33     2.33      0.0000     90.00 LINEAR  5.1874E-13     69.95  7.2325E-01     69.95
   90.00    173.00   -999.99     2.37     2.37      0.0000     90.00 LINEAR  4.5487E-13     69.93  7.2591E-01     69.93
   90.00    174.00   -999.99     2.39     2.39      0.0000     90.00 LINEAR  3.9061E-13     69.92  7.2822E-01     69.92
   90.00    175.00   -999.99     2.42     2.42      0.0000     90.00 LINEAR  3.2602E-13     69.90  7.3019E-01     69.90
   90.00    176.00   -999.99     2.44     2.44      0.0000     90.00 LINEAR  2.6115E-13     69.89  7.3180E-01     69.89
   90.00    177.00   -999.99     2.45     2.45      0.0000     90.00 LINEAR  1.9606E-13     69.88  7.3306E-01     69.88
   90.00    178.00   -999.99     2.46     2.46      0.0000     90.00 LINEAR  1.3080E-13     69.88  7.3395E-01     69.88
   90.00    179.00   -999.99     2.47     2.47      0.0000     90.00 LINEAR  6.5429E-14     69.87  7.3449E-01     69.87
   90.00    180.00   -999.99     2.47     2.47      0.0000    -90.00 LINEAR  3.8269E-23   -110.13  7.3467E-01     69.87
   90.00    181.00   -999.99     2.47     2.47      0.0000    -90.00 LINEAR  6.5429E-14   -110.13  7.3449E-01     69.87
   90.00    182.00   -999.99     2.46     2.46      0.0000    -90.00 LINEAR  1.3080E-13   -110.12  7.3395E-01     69.88
   90.00    183.00   -999.99     2.45     2.45      0.0000    -90.00 LINEAR  1.9606E-13   -110.12  7.3306E-01     69.88
   90.00    184.00   -999.99     2.44     2.44      0.0000    -90.00 LINEAR  2.6115E-13   -110.11  7.3180E-01     69.89
   90.00    185.00   -999.99     2.42     2.42      0.0000    -90.00 LINEAR  3.2602E-13   -110.10  7.3019E-01     69.90
   90.00    186.00   -999.99     2.39     2.39      0.0000    -90.00 LINEAR  3.9061E-13   -110.08  7.2822E-01     69.92
   90.00    187.00   -999.99     2.37     2.37      0.0000    -90.00 LINEAR  4.5487E-13   -110.07  7.2591E-01     69.93
   90.00    188.00   -999.99     2.33     2.33      0.0000    -90.00 LINEAR  5.1874E-13   -110.05  7.2325E-01     69.95
   90.00    189.00   -999.99     2.30     2.30      0.0000    -90.00 LINEAR  5.8217E-13   -110.03  7.2024E-01     69.97
   90.00    190.00   -999.99     2.26     2.26      0.0000    -90.00 LINEAR  6.4511E-13   -110.01  7.1690E-01     69.99
   90.00    191.00   -999.99     2.21     2.21      0.0000    -90.00 LINEAR  7.0751E-13   -109.98  7.1322E-01     70.02
   90.00    192.00   -999.99     2.16     2.16      0.0000    -90.00 LINEAR  7.6933E-13   -109.96  7.0921E-01     70.04
   90.00    193.00   -999.99     2.11     2.11      0.0000    -90.00 LINEAR  8.3050E-13   -109.93  7.0488E-01     70.07
   90.00    194.00   -999.99     2.05     2.05      0.0000    -90.00 LINEAR  8.9100E-13   -109.90  7.0024E-01     70.10
   90.00    195.00   -999.99     1.99     1.99      0.0000    -90.00 LINEAR  9.5076E-13   -109.86  6.9528E-01     70.14
   90.00    196.00   -999.99     1.92     1.92      0.0000    -90.00 LINEAR  1.0098E-12   -109.82  6.9002E-01     70.18
   90.00    197.00   -999.99     1.85     1.85      0.0000    -90.00 LINEAR  1.0679E-12   -109.79  6.8446E-01     70.21
   90.00    198.00   -999.99     1.78     1.78      0.0000    -90.00 LINEAR  1.1253E-12   -109.75  6.7862E-01     70.25
   90.00    199.00   -999.99     1.70     1.70      0.0000    -90.00 LINEAR  1.1817E-12   -109.70  6.7250E-01     70.30
   90.00    200.00   -999.99     1.62     1.62      0.0000    -90.00 LINEAR  1.2373E-12   -109.66  6.6610E-01     70.34
   90.00    201.00   -999.99     1.53     1.53      0.0000    -90.00 LINEAR  1.2919E-12   -109.61  6.5944E-01     70.39
   90.00    202.00   -999.99     1.44     1.44      0.0000    -90.00 LINEAR  1.3454E-12   -109.56  6.5252E-01     70.44
   90.00    203.00   -999.99     1.34     1.34      0.0000    -90.00 LINEAR  1.3980E-12   -109.51  6.4536E-01     70.49
   90.00    204.00   -999.99     1.24     1.24      0.0000    -90.00 LINEAR  1.4496E-12   -109.46  6.3796E-01     70.54
   90.00    205.00   -999.99     1.14     1.14      0.0000    -90.00 LINEAR  1.5000E-12   -109.40  6.3034E-01     70.60
   90.00    206.00   -999.99     1.03     1.03      0.0000    -90.00 LINEAR  1.5494E-12   -109.34  6.2249E-01     70.66
   90.00    207.00   -999.99     0.92     0.92      0.0000    -90.00 LINEAR  1.5977E-12   -109.29  6.1444E-01     70.71
   90.00    208.00   -999.99     0.80     0.80      0.0000    -90.00 LINEAR  1.6449E-12   -109.23  6.0618E-01     70.77
   90.00    209.00   -999.99     0.68     0.68      0.0000    -90.00 LINEAR  1.6909E-12   -109.16  5.9774E-01     70.84
   90.00    210.00   -999.99     0.55     0.55      0.0000    -90.00 LINEAR  1.7358E-12   -109.10  5.8912E-01     70.90
   90.00    211.00   -999.99     0.42     0.42      0.0000    -90.00 LINEAR  1.7795E-12   -109.03  5.8033E-01     70.97
   90.00    212.00   -999.99     0.29     0.29      0.0000    -90.00 LINEAR  1.8221E-12   -108.96  5.7137E-01     71.04
   90.00    213.00   -999.99     0.15     0.15      0.0000    -90.00 LINEAR  1.8635E-12   -108.90  5.6227E-01     71.10
   90.00    214.00   -999.99     0.00     0.00      0.0000    -90.00 LINEAR  1.9037E-12   -108.82  5.5302E-01     71.18
   90.00    215.00   -999.99    -0.15    -0.15      0.0000    -90.00 LINEAR  1.9427E-12   -108.75  5.4364E-01     71.25
   90.00    216.00   -999.99    -0.30    -0.30      0.0000    -90.00 LINEAR  1.9805E-12   -108.68  5.3414E-01     71.32
   90.00    217.00   -999.99    -0.46    -0.46      0.0000    -90.00 LINEAR  2.0172E-12   -108.60  5.2453E-01     71.40
   90.00    218.00   -999.99    -0.62    -0.62      0.0000    -90.00 LINEAR  2.0527E-12   -108.53  5.1481E-01     71.47
   90.00    219.00   -999.99    -0.79    -0.79      0.0000    -90.00 LINEAR  2.0870E-12   -108.45  5.0500E-01     71.55
   90.00    220.00   -999.99    -0.96    -0.96      0.0000    -90.00 LINEAR  2.1201E-12   -108.37  4.9509E-01     71.63
   90.00    221.00   -999.99    -1.14    -1.14      0.0000    -90.00 LINEAR  2.1521E-12   -108.29  4.8511E-01     71.71
   90.00    222.00   -999.99    -1.32    -1.32      0.0000    -90.00 LINEAR  2.1830E-12   -108.21  4.7506E-01     71.79
   90.00    223.00   -999.99    -1.50    -1.50      0.0000    -90.00 LINEAR  2.2127E-12   -108.13  4.6495E-01     71.87
   90.00    224.00   -999.99    -1.70    -1.70      0.0000    -90.00 LINEAR  2.2413E-12   -108.05  4.5479E-01     71.95
   90.00    225.00   -999.99    -1.89    -1.89      0.0000    -90.00 LINEAR  2.2688E-12   -107.97  4.4457E-01     72.03
   90.00    226.00   -999.99    -2.10    -2.10      0.0000    -90.00 LINEAR  2.2953E-12   -107.88  4.3432E-01     72.12
   90.00    227.00   -999.99    -2.30    -2.30      0.0000    -90.00 LINEAR  2.3207E-12   -107.80  4.2404E-01     72.20
   90.00    228.00   -999.99    -2.52    -2.52      0.0000    -90.00 LINEAR  2.3450E-12   -107.71  4.1373E-01     72.29
   90.00    229.00   -999.99    -2.74    -2.74      0.0000    -90.00 LINEAR  2.3683E-12   -107.63  4.0340E-01     72.37
   90.00    230.00   -999.99    -2.96    -2.96      0.0000    -90.00 LINEAR  2.3906E-12   -107.55  3.9306E-01     72.45
   90.00    231.00   -999.99    -3.20    -3.20      0.0000    -90.00 LINEAR  2.4119E-12   -107.46  3.8271E-01     72.54
   90.00    232.00   -999.99    -3.43    -3.43      0.0000    -90.00 LINEAR  2.4322E-12   -107.38  3.7235E-01     72.62
   90.00    233.00   -999.99    -3.68    -3.68      0.0000    -90.00 LINEAR  2.4516E-12   -107.29  3.6200E-01     72.71
   90.00    234.00   -999.99    -3.93    -3.93      0.0000    -90.00 LINEAR  2.4701E-12   -107.21  3.5166E-01     72.79
   90.00    235.00   -999.99    -4.19    -4.19      0.0000    -90.00 LINEAR  2.4878E-12   -107.13  3.4133E-01     72.87
   90.00    236.00   -999.99    -4.46    -4.46      0.0000    -90.00 LINEAR  2.5045E-12   -107.04  3.3102E-01     72.96
   90.00    237.00   -999.99    -4.73    -4.73      0.0000    -90.00 LINEAR  2.5204E-12   -106.96  3.2072E-01     73.04
   90.00    238.00   -999.99    -5.01    -5.01      0.0000    -90.00 LINEAR  2.5355E-12   -106.88  3.1045E-01     73.12
   90.00    239.00   -999.99    -5.30    -5.30      0.0000    -90.00 LINEAR  2.5498E-12   -106.80  3.0021E-01     73.20
   90.00    240.00   -999.99    -5.60    -5.60      0.0000    -90.00 LINEAR  2.5634E-12   -106.72  2.9000E-01     73.28
   90.00    241.00   -999.99    -5.92    -5.92      0.0000    -90.00 LINEAR  2.5762E-12   -106.64  2.7981E-01     73.36
   90.00    242.00   -999.99    -6.24    -6.24      0.0000    -90.00 LINEAR  2.5883E-12   -106.56  2.6967E-01     73.44
   90.00    243.00   -999.99    -6.57    -6.57      0.0000    -90.00 LINEAR  2.5997E-12   -106.48  2.5956E-01     73.52
   90.00    244.00   -999.99    -6.91    -6.91      0.0000    -90.00 LINEAR  2.6105E-12   -106.41  2.4948E-01     73.59
   90.00    245.00   -999.99    -7.27    -7.27      0.0000    -90.00 LINEAR  2.6206E-12   -106.34  2.3945E-01     73.66
   90.00    246.00   -999.99    -7.64    -7.64      0.0000    -90.00 LINEAR  2.6301E-12   -106.26  2.2945E-01     73.74
   90.00    247.00   -999.99    -8.02    -8.02      0.0000    -90.00 LINEAR  2.6390E-12   -106.20  2.1950E-01     73.80
   90.00    248.00   -999.99    -8.43    -8.43      0.0000    -90.00 LINEAR  2.6473E-12   -106.13  2.0958E-01     73.87
   90.00    249.00   -999.99    -8.84    -8.84      0.0000    -90.00 LINEAR  2.6551E-12   -106.06  1.9971E-01     73.94
   90.00    250.00   -999.99    -9.28    -9.28      0.0000    -90.00 LINEAR  2.6624E-12   -106.00  1.8988E-01     74.00
   90.00    251.00   -999.99    -9.74    -9.74      0.0000    -90.00 LINEAR  2.6692E-12   -105.94  1.8009E-01     74.06
   90.00    252.00   -999.99   -10.23   -10.23      0.0000    -90.00 LINEAR  2.6755E-12   -105.88  1.7034E-01     74.12
   90.00    253.00   -999.99   -10.74   -10.74      0.0000    -90.00 LINEAR  2.6814E-12   -105.82  1.6063E-01     74.18
   90.00    254.00   -999.99   -11.28   -11.28      0.0000    -90.00 LINEAR  2.6868E-12   -105.77  1.5096E-01     74.23
   90.00    255.00   -999.99   -11.85   -11.85      0.0000    -90.00 LINEAR  2.6918E-12   -105.72  1.4133E-01     74.28
   90.00    256.00   -999.99   -12.46   -12.46      0.0000    -90.00 LINEAR  2.6963E-12   -105.67  1.3173E-01     74.33
   90.00    257.00   -999.99   -13.11   -13.11      0.0000    -90.00 LINEAR  2.7005E-12   -105.63  1.2217E-01     74.37
   90.00    258.00   -999.99   -13.82   -13.82      0.0000    -90.00 LINEAR  2.7044E-12   -105.58  1.1264E-01     74.42
   90.00    259.00   -999.99   -14.58   -14.58      0.0000    -90.00 LINEAR  2.7078E-12   -105.54  1.0314E-01     74.46
   90.00    260.00   -999.99   -15.42   -15.42      0.0000    -90.00 LINEAR  2.7109E-12   -105.51  9.3665E-02     74.49
   90.00    261.00   -999.99   -16.34   -16.34      0.0000    -90.00 LINEAR  2.7137E-12   -105.48  8.4220E-02     74.52
   90.00    262.00   -999.99   -17.37   -17.37      0.0000    -90.00 LINEAR  2.7162E-12   -105.45  7.4799E-02     74.55
   90.00    263.00   -999.99   -18.54   -18.54      0.0000    -90.00 LINEAR  2.7183E-12   -105.42  6.5400E-02     74.58
   90.00    264.00   -999.99   -19.89   -19.89      0.0000    -90.00 LINEAR  2.7201E-12   -105.40  5.6021E-02     74.60
   90.00    265.00   -999.99   -21.47   -21.47      0.0000    -90.00 LINEAR  2.7217E-12   -105.38  4.6658E-02     74.62
   90.00    266.00   -999.99   -23.42   -23.42      0.0000    -90.00 LINEAR  2.7229E-12   -105.36  3.7310E-02     74.64
   90.00    267.00   -999.99   -25.92   -25.92      0.0000    -90.00 LINEAR  2.7239E-12   -105.35  2.7972E-02     74.65
   90.00    268.00   -999.99   -29.44   -29.44      0.0000    -90.00 LINEAR  2.7246E-12   -105.34  1.8643E-02     74.66
   90.00    269.00   -999.99   -35.46   -35.46      0.0000    -90.00 LINEAR  2.7250E-12   -105.34  9.3203E-03     74.66
   90.00    270.00   -999.99  -999.99  -999.99      0.0000      0.00         2.7251E-12   -105.33  8.1754E-12   -105.33
   90.00    271.00   -999.99   -35.46   -35.46      0.0000     90.00 LINEAR  2.7250E-12   -105.34  9.3203E-03   -105.34
   90.00    272.00   -999.99   -29.44   -29.44      0.0000     90.00 LINEAR  2.7246E-12   -105.34  1.8643E-02   -105.34
   90.00    273.00   -999.99   -25.92   -25.92      0.0000     90.00 LINEAR  2.7239E-12   -105.35  2.7972E-02   -105.35
   90.00    274.00   -999.99   -23.42   -23.42      0.0000     90.00 LINEAR  2.7229E-12   -105.36  3.7310E-02   -105.36
   90.00    275.00   -999.99   -21.47   -21.47      0.0000     90.00 LINEAR  2.7217E-12   -105.38  4.6658E-02   -105.38
   90.00    276.00   -999.99   -19.89   -19.89      0.0000     90.00 LINEAR  2.7201E-12   -105.40  5.6021E-02   -105.40
   90.00    277.00   -999.99   -18.54   -18.54      0.0000     90.00 LINEAR  2.7183E-12   -105.42  6.5400E-02   -105.42
   90.00    278.00   -999.99   -17.37   -17.37      0.0000     90.00 LINEAR  2.7162E-12   -105.45  7.4799E-02   -105.45
   90.00    279.00   -999.99   -16.34   -16.34      0.0000     90.00 LINEAR  2.7137E-12   -105.48  8.4220E-02   -105.48
   90.00    280.00   -999.99   -15.42   -15.42      0.0000     90.00 LINEAR  2.7109E-12   -105.51  9.3665E-02   -105.51
   90.00    281.00   -999.99   -14.58   -14.58      0.0000     90.00 LINEAR  2.7078E-12   -105.54  1.0314E-01   -105.54
   90.00    282.00   -999.99   -13.82   -13.82      0.0000     90.00 LINEAR  2.7044E-12   -105.58  1.1264E-01   -105.58
   90.00    283.00   -999.99   -13.11   -13.11      0.0000     90.00 LINEAR  2.7005E-12   -105.63  1.2217E-01   -105.63
   90.00    284.00   -999.99   -12.46   -12.46      0.0000     90.00 LINEAR  2.6963E-12   -105.67  1.3173E-01   -105.67
   90.00    285.00   -999.99   -11.85   -11.85      0.0000     90.00 LINEAR  2.6918E-12   -105.72  1.4133E-01   -105.72
   90.00    286.00   -999.99   -11.28   -11.28      0.0000     90.00 LINEAR  2.6868E-12   -105.77  1.5096E-01   -105.77
   90.00    287.00   -999.99   -10.74   -10.74      0.0000     90.00 LINEAR  2.6814E-12   -105.82  1.6063E-01   -105.82
   90.00    288.00   -999.99   -10.23   -10.23      0.0000     90.00 LINEAR  2.6755E-12   -105.88  1.7034E-01   -105.88
   90.00    289.00   -999.99    -9.74    -9.74      0.0000     90.00 LINEAR  2.6692E-12   -105.94  1.8009E-01   -105.94
   90.00    290.00   -999.99    -9.28    -9.28      0.0000     90.00 LINEAR  2.6624E-12   -106.00  1.8988E-01   -106.00
   90.00    291.00   -999.99    -8.84    -8.84      0.0000     90.00 LINEAR  2.6551E-12   -106.06  1.9971E-01   -106.06
   90.00    292.00   -999.99    -8.43    -8.43      0.0000     90.00 LINEAR  2.6473E-12   -106.13  2.0958E-01   -106.13
   90.00    293.00   -999.99    -8.02    -8.02      0.0000     90.00 LINEAR  2.6390E-12   -106.20  2.1950E-01   -106.20
   90.00    294.00   -999.99    -7.64    -7.64      0.0000     90.00 LINEAR  2.6301E-12   -106.26  2.2945E-01   -106.26
   90.00    295.00   -999.99    -7.27    -7.27      0.0000     90.00 LINEAR  2.6206E-12   -106.34  2.3945E-01   -106.34
   90.00    296.00   -999.99    -6.91    -6.91      0.0000     90.00 LINEAR  2.6105E-12   -106.41  2.4948E-01   -106.41
   90.00    297.00   -999.99    -6.57    -6.57      0.0000     90.00 LINEAR  2.5997E-12   -106.48  2.5956E-01   -106.48
   90.00    298.00   -999.99    -6.24    -6.24      0.0000     90.00 LINEAR  2.5883E-12   -106.56  2.6967E-01   -106.56
   90.00    299.00   -999.99    -5.92    -5.92      0.0000     90.00 LINEAR  2.5762E-12   -106.64  2.7981E-01   -106.64
   90.00    300.00   -999.99    -5.60    -5.60      0.0000     90.00 LINEAR  2.5634E-12   -106.72  2.9000E-01   -106.72
   90.00    301.00   -999.99    -5.30    -5.30      0.0000     90.00 LINEAR  2.5498E-12   -106.80  3.0021E-01   -106.80
   90.00    302.00   -999.99    -5.01    -5.01      0.0000     90.00 LINEAR  2.5355E-12   -106.88  3.1045E-01   -106.88
   90.00    303.00   -999.99    -4.73    -4.73      0.0000     90.00 LINEAR  2.5204E-12   -106.96  3.2072E-01   -106.96
   90.00    304.00   -999.99    -4.46    -4.46      0.0000     90.00 LINEAR  2.5045E-12   -107.04  3.3102E-01   -107.04
   90.00    305.00   -999.99    -4.19    -4.19      0.0000     90.00 LINEAR  2.4878E-12   -107.13  3.4133E-01   -107.13
   90.00    306.00   -999.99    -3.93    -3.93      0.0000     90.00 LINEAR  2.4701E-12   -107.21  3.5166E-01   -107.21
   90.00    307.00   -999.99    -3.68    -3.68      0.0000     90.00 LINEAR  2.4516E-12   -107.29  3.6200E-01   -107.29
   90.00    308.00   -999.99    -3.43    -3.43      0.0000     90.00 LINEAR  2.4322E-12   -107.38  3.7235E-01   -107.38
   90.00    309.00   -999.99    -3.20    -3.20      0.0000     90.00 LINEAR  2.4119E-12   -107.46  3.8271E-01   -107.46
   90.00    310.00   -999.99    -2.96    -2.96      0.0000     90.00 LINEAR  2.3906E-12   -107.55  3.9306E-01   -107.55
   90.00    311.00   -999.99    -2.74    -2.74      0.0000     90.00 LINEAR  2.3683E-12   -107.63  4.0340E-01   -107.63
   90.00    312.00   -999.99    -2.52    -2.52      0.0000     90.00 LINEAR  2.3450E-12   -107.71  4.1373E-01   -107.71
   90.00    313.00   -999.99    -2.30    -2.30      0.0000     90.00 LINEAR  2.3207E-12   -107.80  4.2404E-01   -107.80
   90.00    314.00   -999.99    -2.10    -2.10      0.0000     90.00 LINEAR  2.2953E-12   -107.88  4.3432E-01   -107.88
   90.00    315.00   -999.99    -1.89    -1.89      0.0000     90.00 LINEAR  2.2688E-12   -107.97  4.4457E-01   -107.97
   90.00    316.00   -999.99    -1.70    -1.70      0.0000     90.00 LINEAR  2.2413E-12   -108.05  4.5479E-01   -108.05
   90.00    317.00   -999.99    -1.50    -1.50      0.0000     90.00 LINEAR  2.2127E-12   -108.13  4.6495E-01   -108.13
   90.00    318.00   -999.99    -1.32    -1.32      0.0000     90.00 LINEAR  2.1830E-12   -108.21  4.7506E-01   -108.21
   90.00    319.00   -999.99    -1.14    -1.14      0.0000     90.00 LINEAR  2.1521E-12   -108.29  4.8511E-01   -108.29
   90.00    320.00   -999.99    -0.96    -0.96      0.0000     90.00 LINEAR  2.1201E-12   -108.37  4.9509E-01   -108.37
   90.00    321.00   -999.99    -0.79    -0.79      0.0000     90.00 LINEAR  2.0870E-12   -108.45  5.0500E-01   -108.45
   90.00    322.00   -999.99    -0.62    -0.62      0.0000     90.00 LINEAR  2.0527E-12   -108.53  5.1481E-01   -108.53
   90.00    323.00   -999.99    -0.46    -0.46      0.0000     90.00 LINEAR  2.0172E-12   -108.60  5.2453E-01   -108.60
   90.00    324.00   -999.99    -0.30    -0.30      0.0000     90.00 LINEAR  1.9805E-12   -108.68  5.3414E-01   -108.68
   90.00    325.00   -999.99    -0.15    -0.15      0.0000     90.00 LINEAR  1.9427E-12   -108.75  5.4364E-01   -108.75
   90.00    326.00   -999.99     0.00     0.00      0.0000     90.00 LINEAR  1.9037E-12   -108.82  5.5302E-01   -108.82
   90.00    327.00   -999.99     0.15     0.15      0.0000     90.00 LINEAR  1.8635E-12   -108.90  5.6227E-01   -108.90
   90.00    328.00   -999.99     0.29     0.29      0.0000     90.00 LINEAR  1.8221E-12   -108.96  5.7137E-01   -108.96
   90.00    329.00   -999.99     0.42     0.42      0.0000     90.00 LINEAR  1.7795E-12   -109.03  5.8033E-01   -109.03
   90.00    330.00   -999.99     0.55     0.55      0.0000     90.00 LINEAR  1.7358E-12   -109.10  5.8912E-01   -109.10
   90.00    331.00   -999.99     0.68     0.68      0.0000     90.00 LINEAR  1.6909E-12   -109.16  5.9774E-01   -109.16
   90.00    332.00   -999.99     0.80     0.80      0.0000     90.00 LINEAR  1.6449E-12   -109.23  6.0618E-01   -109.23
   90.00    333.00   -999.99     0.92     0.92      0.0000     90.00 LINEAR  1.5977E-12   -109.29  6.1444E-01   -109.29
   90.00    334.00   -999.99     1.03     1.03      0.0000     90.00 LINEAR  1.5494E-12   -109.34  6.2249E-01   -109.34
   90.00    335.00   -999.99     1.14     1.14      0.0000     90.00 LINEAR  1.5000E-12   -109.40  6.3034E-01   -109.40
   90.00    336.00   -999.99     1.24     1.24      0.0000     90.00 LINEAR  1.4496E-12   -109.46  6.3796E-01   -109.46
   90.00    337.00   -999.99     1.34     1.34      0.0000     90.00 LINEAR  1.3980E-12   -109.51  6.4536E-01   -109.51
   90.00    338.00   -999.99     1.44     1.44      0.0000     90.00 LINEAR  1.3454E-12   -109.56  6.5252E-01   -109.56
   90.00    339.00   -999.99     1.53     1.53      0.0000     90.00 LINEAR  1.2919E-12   -109.61  6.5944E-01   -109.61
   90.00    340.00   -999.99     1.62     1.62      0.0000     90.00 LINEAR  1.2373E-12   -109.66  6.6610E-01   -109.66
   90.00    341.00   -999.99     1.70     1.70      0.0000     90.00 LINEAR  1.1817E-12   -109.70  6.7250E-01   -109.70
   90.00    342.00   -999.99     1.78     1.78      0.0000     90.00 LINEAR  1.1253E-12   -109.75  6.7862E-01   -109.75
   90.00    343.00   -999.99     1.85     1.85      0.0000     90.00 LINEAR  1.0679E-12   -109.79  6.8446E-01   -109.79
   90.00    344.00   -999.99     1.92     1.92      0.0000     90.00 LINEAR  1.0098E-12   -109.82  6.9002E-01   -109.82
   90.00    345.00   -999.99     1.99     1.99      0.0000     90.00 LINEAR  9.5076E-13   -109.86  6.9528E-01   -109.86
   90.00    346.00   -999.99     2.05     2.05      0.0000     90.00 LINEAR  8.9100E-13   -109.90  7.0024E-01   -109.90
   90.00    347.00   -999.99     2.11     2.11      0.0000     90.00 LINEAR  8.3050E-13   -109.93  7.0488E-01   -109.93
   90.00    348.00   -999.99     2.16     2.16      0.0000     90.00 LINEAR  7.6933E-13   -109.96  7.0921E-01   -109.96
   90.00    349.00   -999.99     2.21     2.21      0.0000     90.00 LINEAR  7.0751E-13   -109.98  7.1322E-01   -109.98
   90.00    350.00   -999.99     2.26     2.26      0.0000     90.00 LINEAR  6.4511E-13   -110.01  7.1690E-01   -110.01
   90.00    351.00   -999.99     2.30     2.30      0.0000     90.00 LINEAR  5.8217E-13   -110.03  7.2024E-01   -110.03
   90.00    352.00   -999.99     2.33     2.33      0.0000     90.00 LINEAR  5.1874E-13   -110.05  7.2325E-01   -110.05
   90.00    353.00   -999.99     2.37     2.37      0.0000     90.00 LINEAR  4.5487E-13   -110.07  7.2591E-01   -110.07
   90.00    354.00   -999.99     2.39     2.39      0.0000     90.00 LINEAR  3.9061E-13   -110.08  7.2822E-01   -110.08
   90.00    355.00   -999.99     2.42     2.42      0.0000     90.00 LINEAR  3.2602E-13   -110.10  7.3019E-01   -110.10
   90.00    356.00   -999.99     2.44     2.44      0.0000     90.00 LINEAR  2.6115E-13   -110.11  7.3180E-01   -110.11
   90.00    357.00   -999.99     2.45     2.45      0.0000     90.00 LINEAR  1.9606E-13   -110.12  7.3306E-01   -110.12
   90.00    358.00   -999.99     2.46     2.46      0.0000     90.00 LINEAR  1.3080E-13   -110.12  7.3395E-01   -110.12
   90.00    359.00   -999.99     2.47     2.47      0.0000     90.00 LINEAR  6.5429E-14   -110.13  7.3449E-01   -110.13



*****  DATA CARD N0.   6 EN   0     0     0     0  0.00000E+00  0.00000E+00  0.00000E+00  0.00000E+00  0.00000E+00  0.00000E+00

  TOTAL RUN TIME: 30 msec