


                                __________________________________________
                               |                                          |
                               | NUMERICAL ELECTROMAGNETICS CODE (nec2++) |
                               | Translated to 'C++' in Double Precision  |
                               |        Version 1.1.0 [2005-01-20]        |
                               |__________________________________________|



                               ---------------- COMMENTS ----------------
                               CYLINDER WITH ATTACHED WIRES



                                -------- STRUCTURE SPECIFICATION --------
                                COORDINATES MUST BE INPUT IN
                                METERS OR BE SCALED TO METERS
                                BEFORE STRUCTURE INPUT IS ENDED
  WIRE                                                                                 SEG FIRST  LAST  TAG
   No:        X1         Y1         Z1         X2         Y2         Z2       RADIUS   No:   SEG   SEG  No:

     1P   10.00000    0.00000    7.33330    0.00000    0.00000   38.40000
     2P   10.00000    0.00000    0.00000    0.00000    0.00000   38.40000
     3P   10.00000    0.00000   -7.33330    0.00000    0.00000   38.40000
     THE STRUCTURE HAS BEEN MOVED, MOVE DATA CARD IS:
     0     1    0.00000    0.00000   30.00000    0.00000    0.00000    0.00000    0.00000
     7P    6.89000    0.00000   11.00000   90.00000    0.00000   44.88000
     8P    6.89000    0.00000  -11.00000  -90.00000    0.00000   44.88000
  STRUCTURE ROTATED ABOUT Z-AXIS 6 TIMES - LABELS INCREMENTED BY 0

    49P    0.00000    0.00000   11.00000   90.00000    0.00000   44.89000
    50P    0.00000    0.00000  -11.00000  -90.00000    0.00000   44.89000
     1      0.0000     0.0000    11.0000     0.0000     0.0000    23.0000     0.1000     4     1     4    1
     2     10.0000     0.0000     0.0000    27.6000     0.0000     0.0000     0.2000     5     5     9    2
     STRUCTURE SCALED BY FACTOR:    0.01000

     TOTAL SEGMENTS USED: 9   SEGMENTS IN A SYMMETRIC CELL: 9   SYMMETRY FLAG: 0
       TOTAL PATCHES USED: 56   PATCHES IN A SYMMETRIC CELL: 56


                               ---------- SEGMENTATION DATA ----------
                                        COORDINATES IN METERS
                            I+ AND I- INDICATE THE SEGMENTS BEFORE AND AFTER I

   SEG    COORDINATES OF SEGM CENTER     SEGM    ORIENTATION ANGLES    WIRE    CONNECTION DATA   TAG
   No:       X         Y         Z      LENGTH     ALPHA      BETA    RADIUS    I-     I    I+   NO:
     1    0.0000    0.0000    0.1250    0.0300   90.0000    0.0000    0.0010 100052     1     2     1
     2    0.0000    0.0000    0.1550    0.0300   90.0000    0.0000    0.0010     1     2     3     1
     3    0.0000    0.0000    0.1850    0.0300   90.0000    0.0000    0.0010     2     3     4     1
     4    0.0000    0.0000    0.2150    0.0300   90.0000    0.0000    0.0010     3     4     0     1
     5    0.1176    0.0000    0.0000    0.0352    0.0000    0.0000    0.0020 100002     5     6     2
     6    0.1528    0.0000    0.0000    0.0352    0.0000    0.0000    0.0020     5     6     7     2
     7    0.1880    0.0000    0.0000    0.0352    0.0000    0.0000    0.0020     6     7     8     2
     8    0.2232    0.0000    0.0000    0.0352    0.0000    0.0000    0.0020     7     8     9     2
     9    0.2584    0.0000    0.0000    0.0352    0.0000    0.0000    0.0020     8     9     0     2


                                    --------- SURFACE PATCH DATA ---------
                                             COORDINATES IN METERS

 PATCH      COORD. OF PATCH CENTER           UNIT NORMAL VECTOR       PATCH           COMPONENTS OF UNIT TANGENT VECTORS
  NO:       X          Y          Z          X        Y        Z       AREA         X1       Y1       Z1        X2       Y2      Z2
    1    0.10000    0.00000    0.07333    1.0000   0.0000   0.0000    0.00384   -0.0000   1.0000   0.0000    0.0000  -0.0000   1.0000
    2    0.10000    0.01549    0.01549    1.0000   0.0000   0.0000    0.00096   -0.0000   1.0000   0.0000    0.0000  -0.0000   1.0000
    3    0.10000   -0.01549    0.01549    1.0000   0.0000   0.0000    0.00096   -0.0000   1.0000   0.0000    0.0000  -0.0000   1.0000
    4    0.10000   -0.01549   -0.01549    1.0000   0.0000   0.0000    0.00096   -0.0000   1.0000   0.0000    0.0000  -0.0000   1.0000
    5    0.10000    0.01549   -0.01549    1.0000   0.0000   0.0000    0.00096   -0.0000   1.0000   0.0000    0.0000  -0.0000   1.0000
    6    0.10000    0.00000   -0.07333    1.0000   0.0000   0.0000    0.00384   -0.0000   1.0000   0.0000    0.0000  -0.0000   1.0000
    7    0.08660    0.05000    0.07333    0.8660   0.5000  -0.0000    0.00384   -0.5000   0.8660   0.0000    0.0000   0.0000   1.0000
    8    0.08660    0.05000    0.00000    0.8660   0.5000  -0.0000    0.00384   -0.5000   0.8660   0.0000    0.0000   0.0000   1.0000
    9    0.08660    0.05000   -0.07333    0.8660   0.5000  -0.0000    0.00384   -0.5000   0.8660   0.0000    0.0000   0.0000   1.0000
   10    0.06890    0.00000    0.11000    0.0000  -0.0000   1.0000    0.00449    1.0000   0.0000   0.0000   -0.0000   1.0000   0.0000
   11    0.06890    0.00000   -0.11000    0.0000   0.0000  -1.0000    0.00449    1.0000   0.0000   0.0000    0.0000  -1.0000   0.0000
   12    0.05000    0.08660    0.07333    0.5000   0.8660  -0.0000    0.00384   -0.8660   0.5000   0.0000    0.0000   0.0000   1.0000
   13    0.05000    0.08660    0.00000    0.5000   0.8660  -0.0000    0.00384   -0.8660   0.5000   0.0000    0.0000   0.0000   1.0000
   14    0.05000    0.08660   -0.07333    0.5000   0.8660  -0.0000    0.00384   -0.8660   0.5000   0.0000    0.0000   0.0000   1.0000
   15   -0.00000    0.10000    0.07333   -0.0000   1.0000   0.0000    0.00384   -1.0000  -0.0000   0.0000    0.0000   0.0000   1.0000
   16   -0.00000    0.10000    0.00000   -0.0000   1.0000   0.0000    0.00384   -1.0000  -0.0000   0.0000    0.0000   0.0000   1.0000
   17   -0.00000    0.10000   -0.07333   -0.0000   1.0000   0.0000    0.00384   -1.0000  -0.0000   0.0000    0.0000   0.0000   1.0000
   18    0.03445    0.05967    0.11000    0.0000  -0.0000   1.0000    0.00449    0.5000   0.8660   0.0000   -0.8660   0.5000   0.0000
   19    0.03445    0.05967   -0.11000    0.0000   0.0000  -1.0000    0.00449    0.5000   0.8660   0.0000    0.8660  -0.5000   0.0000
   20   -0.05000    0.08660    0.07333   -0.5000   0.8660   0.0000    0.00384   -0.8660  -0.5000   0.0000    0.0000   0.0000   1.0000
   21   -0.05000    0.08660    0.00000   -0.5000   0.8660   0.0000    0.00384   -0.8660  -0.5000   0.0000    0.0000   0.0000   1.0000
   22   -0.05000    0.08660   -0.07333   -0.5000   0.8660   0.0000    0.00384   -0.8660  -0.5000   0.0000    0.0000   0.0000   1.0000
   23   -0.08660    0.05000    0.07333   -0.8660   0.5000   0.0000    0.00384   -0.5000  -0.8660   0.0000    0.0000   0.0000   1.0000
   24   -0.08660    0.05000    0.00000   -0.8660   0.5000   0.0000    0.00384   -0.5000  -0.8660   0.0000    0.0000   0.0000   1.0000
   25   -0.08660    0.05000   -0.07333   -0.8660   0.5000   0.0000    0.00384   -0.5000  -0.8660   0.0000    0.0000   0.0000   1.0000
   26   -0.03445    0.05967    0.11000    0.0000   0.0000   1.0000    0.00449   -0.5000   0.8660   0.0000   -0.8660  -0.5000   0.0000
   27   -0.03445    0.05967   -0.11000    0.0000   0.0000  -1.0000    0.00449   -0.5000   0.8660   0.0000    0.8660   0.5000   0.0000
   28   -0.10000   -0.00000    0.07333   -1.0000  -0.0000   0.0000    0.00384    0.0000  -1.0000   0.0000    0.0000   0.0000   1.0000
   29   -0.10000   -0.00000    0.00000   -1.0000  -0.0000   0.0000    0.00384    0.0000  -1.0000   0.0000    0.0000   0.0000   1.0000
   30   -0.10000   -0.00000   -0.07333   -1.0000  -0.0000   0.0000    0.00384    0.0000  -1.0000   0.0000    0.0000   0.0000   1.0000
   31   -0.08660   -0.05000    0.07333   -0.8660  -0.5000   0.0000    0.00384    0.5000  -0.8660   0.0000    0.0000   0.0000   1.0000
   32   -0.08660   -0.05000    0.00000   -0.8660  -0.5000   0.0000    0.00384    0.5000  -0.8660   0.0000    0.0000   0.0000   1.0000
   33   -0.08660   -0.05000   -0.07333   -0.8660  -0.5000   0.0000    0.00384    0.5000  -0.8660   0.0000    0.0000   0.0000   1.0000
   34   -0.06890   -0.00000    0.11000    0.0000   0.0000   1.0000    0.00449   -1.0000  -0.0000   0.0000    0.0000  -1.0000   0.0000
   35   -0.06890   -0.00000   -0.11000   -0.0000   0.0000  -1.0000    0.00449   -1.0000  -0.0000   0.0000   -0.0000   1.0000   0.0000
   36   -0.05000   -0.08660    0.07333   -0.5000  -0.8660   0.0000    0.00384    0.8660  -0.5000   0.0000    0.0000   0.0000   1.0000
   37   -0.05000   -0.08660    0.00000   -0.5000  -0.8660   0.0000    0.00384    0.8660  -0.5000   0.0000    0.0000   0.0000   1.0000
   38   -0.05000   -0.08660   -0.07333   -0.5000  -0.8660   0.0000    0.00384    0.8660  -0.5000   0.0000    0.0000   0.0000   1.0000
   39    0.00000   -0.10000    0.07333    0.0000  -1.0000   0.0000    0.00384    1.0000   0.0000   0.0000    0.0000   0.0000   1.0000
   40    0.00000   -0.10000    0.00000    0.0000  -1.0000   0.0000    0.00384    1.0000   0.0000   0.0000    0.0000   0.0000   1.0000
   41    0.00000   -0.10000   -0.07333    0.0000  -1.0000   0.0000    0.00384    1.0000   0.0000   0.0000    0.0000   0.0000   1.0000
   42   -0.03445   -0.05967    0.11000    0.0000   0.0000   1.0000    0.00449   -0.5000  -0.8660   0.0000    0.8660  -0.5000   0.0000
   43   -0.03445   -0.05967   -0.11000   -0.0000   0.0000  -1.0000    0.00449   -0.5000  -0.8660   0.0000   -0.8660   0.5000   0.0000
   44    0.05000   -0.08660    0.07333    0.5000  -0.8660   0.0000    0.00384    0.8660   0.5000   0.0000    0.0000   0.0000   1.0000
   45    0.05000   -0.08660    0.00000    0.5000  -0.8660   0.0000    0.00384    0.8660   0.5000   0.0000    0.0000   0.0000   1.0000
   46    0.05000   -0.08660   -0.07333    0.5000  -0.8660   0.0000    0.00384    0.8660   0.5000   0.0000    0.0000   0.0000   1.0000
   47    0.08660   -0.05000    0.07333    0.8660  -0.5000   0.0000    0.00384    0.5000   0.8660   0.0000    0.0000   0.0000   1.0000
   48    0.08660   -0.05000    0.00000    0.8660  -0.5000   0.0000    0.00384    0.5000   0.8660   0.0000    0.0000   0.0000   1.0000
   49    0.08660   -0.05000   -0.07333    0.8660  -0.5000   0.0000    0.00384    0.5000   0.8660   0.0000    0.0000   0.0000   1.0000
   50    0.03445   -0.05967    0.11000   -0.0000   0.0000   1.0000    0.00449    0.5000  -0.8660   0.0000    0.8660   0.5000   0.0000
   51    0.03445   -0.05967   -0.11000    0.0000  -0.0000  -1.0000    0.00449    0.5000  -0.8660   0.0000   -0.8660  -0.5000   0.0000
   52    0.01675    0.01675    0.11000    0.0000  -0.0000   1.0000    0.00112    1.0000   0.0000   0.0000   -0.0000   1.0000   0.0000
   53   -0.01675    0.01675    0.11000    0.0000  -0.0000   1.0000    0.00112    1.0000   0.0000   0.0000   -0.0000   1.0000   0.0000
   54   -0.01675   -0.01675    0.11000    0.0000  -0.0000   1.0000    0.00112    1.0000   0.0000   0.0000   -0.0000   1.0000   0.0000
   55    0.01675   -0.01675    0.11000    0.0000  -0.0000   1.0000    0.00112    1.0000   0.0000   0.0000   -0.0000   1.0000   0.0000
   56    0.00000    0.00000   -0.11000    0.0000   0.0000  -1.0000    0.00449    1.0000   0.0000   0.0000    0.0000  -1.0000   0.0000



*****  DATA CARD N0.   1 FR   0     1     0     0  4.65840E+02  0.00000E+00  0.00000E+00  0.00000E+00  0.00000E+00  0.00000E+00
*****  DATA CARD N0.   2 CP   1     1     2     1  0.00000E+00  0.00000E+00  0.00000E+00  0.00000E+00  0.00000E+00  0.00000E+00
*****  DATA CARD N0.   3 EX   0     1     1     0  1.00000E+00  0.00000E+00  0.00000E+00  0.00000E+00  0.00000E+00  0.00000E+00
*****  DATA CARD N0.   4 RP   0    73     1  1000  0.00000E+00  0.00000E+00  5.00000E+00  0.00000E+00  0.00000E+00  0.00000E+00


                               --------- FREQUENCY --------
                               FREQUENCY=  4.6584E+02 MHZ
                               WAVELENGTH= 6.4357E-01 METERS


                        APPROXIMATE INTEGRATION EMPLOYED FOR SEGMENTS
                        THAT ARE MORE THAN 1.000 WAVELENGTHS APART



                          ------ STRUCTURE IMPEDANCE LOADING ------
                                 THIS STRUCTURE IS NOT LOADED



                            -------- ANTENNA ENVIRONMENT --------
                            FREE SPACE



                             ---------- MATRIX TIMING ----------
                               FILL= 20 msec  FACTOR: 80 msec


                        --------- ANTENNA INPUT PARAMETERS ---------
  TAG   SEG       VOLTAGE (VOLTS)         CURRENT (AMPS)         IMPEDANCE (OHMS)        ADMITTANCE (MHOS)     POWER
  NO.   NO.     REAL      IMAGINARY     REAL      IMAGINARY     REAL      IMAGINARY    REAL       IMAGINARY   (WATTS)
    1     1  1.0000E+00  0.0000E+00  1.2513E-03  8.2923E-03  1.7793E+01 -1.1791E+02  1.2513E-03  8.2923E-03  6.2566E-04


                           -------- CURRENTS AND LOCATION --------
                                  DISTANCES IN WAVELENGTHS

   SEG  TAG    COORDINATES OF SEGM CENTER     SEGM    ------------- CURRENT (AMPS) -------------
   No:  No:       X         Y         Z      LENGTH     REAL      IMAGINARY    MAGN        PHASE

     1    1    0.0000    0.0000    0.1942   0.04662  1.2513E-03  8.2923E-03  8.3862E-03   81.419
     2    1    0.0000    0.0000    0.2408   0.04662  1.0975E-03  6.5800E-03  6.6709E-03   80.531
     3    1    0.0000    0.0000    0.2875   0.04662  7.9167E-04  4.3758E-03  4.4468E-03   79.745
     4    1    0.0000    0.0000    0.3341   0.04662  3.3076E-04  1.7250E-03  1.7565E-03   79.146
     5    2    0.1827    0.0000    0.0000   0.05470 -7.5907E-04  1.5534E-03  1.7289E-03  116.042
     6    2    0.2374    0.0000    0.0000   0.05470 -7.0147E-04  1.4307E-03  1.5934E-03  116.119
     7    2    0.2921    0.0000    0.0000   0.05470 -5.8437E-04  1.1901E-03  1.3258E-03  116.153
     8    2    0.3468    0.0000    0.0000   0.05470 -4.0801E-04  8.3173E-04  9.2642E-04  116.131
     9    2    0.4015    0.0000    0.0000   0.05470 -1.6998E-04  3.4747E-04  3.8682E-04  116.068


                                       --------- SURFACE PATCH CURRENTS ---------
                                                 DISTANCE IN WAVELENGTHS
                                                 CURRENT IN AMPS/METER

                                 --------- SURFACE COMPONENTS --------    ---------------- RECTANGULAR COMPONENTS ----------------
  PCH   --- PATCH CENTER ---     TANGENT VECTOR 1     TANGENT VECTOR 2    ------- X ------    ------- Y ------    ------- Z ------
  No:    X       Y       Z       MAG.       PHASE     MAG.       PHASE    REAL   IMAGINARY    REAL   IMAGINARY    REAL   IMAGINARY
    1   0.155   0.000   0.114  6.2611E-14    67.70  7.1962E-03   -35.22  0.00E+00  0.00E+00  2.38E-14  5.79E-14  5.88E-03 -4.15E-03
    2   0.155   0.024   0.024  9.0012E-03   -65.46  1.4220E-02   -51.34  0.00E+00  0.00E+00  3.74E-03 -8.19E-03  8.88E-03 -1.11E-02
    3   0.155  -0.024   0.024  9.0012E-03   114.54  1.4220E-02   -51.34  0.00E+00  0.00E+00 -3.74E-03  8.19E-03  8.88E-03 -1.11E-02
    4   0.155  -0.024  -0.024  9.0081E-03   114.49  5.0962E-03    84.31  0.00E+00  0.00E+00 -3.73E-03  8.20E-03  5.05E-04  5.07E-03
    5   0.155   0.024  -0.024  9.0081E-03   -65.51  5.0962E-03    84.31  0.00E+00  0.00E+00  3.73E-03 -8.20E-03  5.05E-04  5.07E-03
    6   0.155   0.000  -0.114  1.8397E-14    -1.03  1.5972E-03    12.53  0.00E+00  0.00E+00  1.84E-14 -3.31E-16  1.56E-03  3.46E-04
    7   0.135   0.078   0.114  1.8793E-03   -94.87  5.5428E-03   -11.30  7.97E-05  9.36E-04 -1.38E-04 -1.62E-03  5.44E-03 -1.09E-03
    8   0.135   0.078   0.000  3.9149E-03   -75.49  5.3139E-03   -33.00 -4.90E-04  1.89E-03  8.49E-04 -3.28E-03  4.46E-03 -2.89E-03
    9   0.135   0.078  -0.114  1.8133E-03   -94.60  2.9183E-03   -33.42  7.27E-05  9.04E-04 -1.26E-04 -1.57E-03  2.44E-03 -1.61E-03
   10   0.107   0.000   0.171  1.3691E-02  -104.81  6.9380E-14   103.64 -3.50E-03 -1.32E-02 -1.64E-14  6.74E-14  0.00E+00  0.00E+00
   11   0.107   0.000  -0.171  1.5187E-03   -10.62  3.2521E-14  -157.77  1.49E-03 -2.80E-04  3.01E-14  1.23E-14  0.00E+00  0.00E+00
   12   0.078   0.135   0.114  1.6705E-03  -129.81  4.7414E-03    -8.86  9.26E-04  1.11E-03 -5.35E-04 -6.42E-04  4.68E-03 -7.30E-04
   13   0.078   0.135   0.000  1.6295E-03  -112.84  5.3699E-03   -33.12  5.48E-04  1.30E-03 -3.16E-04 -7.51E-04  4.50E-03 -2.93E-03
   14   0.078   0.135  -0.114  1.7226E-03  -128.58  4.1506E-03   -48.62  9.30E-04  1.17E-03 -5.37E-04 -6.73E-04  2.74E-03 -3.11E-03
   15  -0.000   0.155   0.114  1.4450E-03  -160.34  5.3232E-03    11.87  1.36E-03  4.86E-04  6.94E-15  2.48E-15  5.21E-03  1.09E-03
   16  -0.000   0.155   0.000  1.2074E-03  -155.49  5.3690E-03   -32.95  1.10E-03  5.01E-04  5.61E-15  2.56E-15  4.51E-03 -2.92E-03
   17  -0.000   0.155  -0.114  1.4416E-03  -160.26  4.6031E-03   -54.61  1.36E-03  4.87E-04  6.92E-15  2.49E-15  2.67E-03 -3.75E-03
   18   0.054   0.093   0.171  1.4845E-02  -105.23  1.6076E-03  -145.64 -8.01E-04 -6.38E-03 -4.04E-03 -1.29E-02  0.00E+00 -0.00E+00
   19   0.054   0.093  -0.171  1.7548E-03   -50.91  1.6063E-03    35.02  1.69E-03  1.17E-04  3.00E-04 -1.64E-03  0.00E+00  0.00E+00
   20  -0.078   0.135   0.114  1.3169E-03  -178.68  5.0409E-03    -2.54  1.14E-03  2.63E-05  6.58E-04  1.52E-05  5.04E-03 -2.24E-04
   21  -0.078   0.135   0.000  9.9496E-04   178.64  5.3744E-03   -33.13  8.61E-04 -2.05E-05  4.97E-04 -1.18E-05  4.50E-03 -2.94E-03
   22  -0.078   0.135  -0.114  1.3019E-03   178.62  4.3371E-03   -56.63  1.13E-03 -2.72E-05  6.51E-04 -1.57E-05  2.39E-03 -3.62E-03
   23  -0.135   0.078   0.114  7.0537E-04   161.19  5.7472E-03     9.56  3.34E-04 -1.14E-04  5.78E-04 -1.97E-04  5.67E-03  9.54E-04
   24  -0.135   0.078   0.000  5.8001E-04   165.30  5.3716E-03   -33.03  2.81E-04 -7.36E-05  4.86E-04 -1.27E-04  4.50E-03 -2.93E-03
   25  -0.135   0.078  -0.114  6.9541E-04   166.60  4.2602E-03   -58.97  3.38E-04 -8.06E-05  5.86E-04 -1.40E-04  2.20E-03 -3.65E-03
   26  -0.054   0.093   0.171  1.5570E-02  -109.02  1.4143E-03  -176.69  3.76E-03  7.43E-03 -3.69E-03 -1.27E-02  0.00E+00 -0.00E+00
   27  -0.054   0.093  -0.171  1.7609E-03   -92.00  1.4055E-03     2.99  1.25E-03  9.44E-04  6.48E-04 -1.49E-03  0.00E+00  0.00E+00
   28  -0.155  -0.000   0.114  1.2637E-14  -107.64  5.2708E-03    -3.82 -3.91E-26 -1.23E-25  3.83E-15  1.20E-14  5.26E-03 -3.51E-04
   29  -0.155  -0.000   0.000  1.0483E-14  -127.90  5.3701E-03   -33.05 -6.57E-26 -8.44E-26  6.44E-15  8.27E-15  4.50E-03 -2.93E-03
   30  -0.155  -0.000  -0.114  3.7925E-15  -155.25  4.0753E-03   -57.88 -3.52E-26 -1.62E-26  3.44E-15  1.59E-15  2.17E-03 -3.45E-03
   31  -0.135  -0.078   0.114  7.0537E-04   -18.81  5.7472E-03     9.56  3.34E-04 -1.14E-04 -5.78E-04  1.97E-04  5.67E-03  9.54E-04
   32  -0.135  -0.078   0.000  5.8001E-04   -14.70  5.3716E-03   -33.03  2.81E-04 -7.36E-05 -4.86E-04  1.27E-04  4.50E-03 -2.93E-03
   33  -0.135  -0.078  -0.114  6.9541E-04   -13.40  4.2602E-03   -58.97  3.38E-04 -8.06E-05 -5.86E-04  1.40E-04  2.20E-03 -3.65E-03
   34  -0.107  -0.000   0.171  1.5557E-02  -111.31  1.1081E-14   -99.26  5.65E-03  1.45E-02  5.95E-14  1.59E-13  0.00E+00 -0.00E+00
   35  -0.107  -0.000  -0.171  1.6720E-03  -112.54  4.5612E-15   -31.43  6.41E-04  1.54E-03  1.04E-14  1.34E-14  0.00E+00  0.00E+00
   36  -0.078  -0.135   0.114  1.3169E-03     1.32  5.0409E-03    -2.54  1.14E-03  2.63E-05 -6.58E-04 -1.52E-05  5.04E-03 -2.24E-04
   37  -0.078  -0.135   0.000  9.9496E-04    -1.36  5.3744E-03   -33.13  8.61E-04 -2.05E-05 -4.97E-04  1.18E-05  4.50E-03 -2.94E-03
   38  -0.078  -0.135  -0.114  1.3019E-03    -1.38  4.3371E-03   -56.63  1.13E-03 -2.72E-05 -6.51E-04  1.57E-05  2.39E-03 -3.62E-03
   39   0.000  -0.155   0.114  1.4450E-03    19.66  5.3232E-03    11.87  1.36E-03  4.86E-04  2.08E-14  7.44E-15  5.21E-03  1.09E-03
   40   0.000  -0.155   0.000  1.2074E-03    24.51  5.3690E-03   -32.95  1.10E-03  5.01E-04  1.68E-14  7.67E-15  4.51E-03 -2.92E-03
   41   0.000  -0.155  -0.114  1.4416E-03    19.74  4.6031E-03   -54.61  1.36E-03  4.87E-04  2.08E-14  7.46E-15  2.67E-03 -3.75E-03
   42  -0.054  -0.093   0.171  1.5570E-02  -109.02  1.4143E-03     3.31  3.76E-03  7.43E-03  3.69E-03  1.27E-02  0.00E+00  0.00E+00
   43  -0.054  -0.093  -0.171  1.7609E-03   -92.00  1.4055E-03  -177.01  1.25E-03  9.44E-04 -6.48E-04  1.49E-03  0.00E+00 -0.00E+00
   44   0.078  -0.135   0.114  1.6705E-03    50.19  4.7414E-03    -8.86  9.26E-04  1.11E-03  5.35E-04  6.42E-04  4.68E-03 -7.30E-04
   45   0.078  -0.135   0.000  1.6295E-03    67.16  5.3699E-03   -33.12  5.48E-04  1.30E-03  3.16E-04  7.51E-04  4.50E-03 -2.93E-03
   46   0.078  -0.135  -0.114  1.7226E-03    51.42  4.1506E-03   -48.62  9.30E-04  1.17E-03  5.37E-04  6.73E-04  2.74E-03 -3.11E-03
   47   0.135  -0.078   0.114  1.8793E-03    85.13  5.5428E-03   -11.30  7.97E-05  9.36E-04  1.38E-04  1.62E-03  5.44E-03 -1.09E-03
   48   0.135  -0.078   0.000  3.9149E-03   104.51  5.3139E-03   -33.00 -4.90E-04  1.89E-03 -8.49E-04  3.28E-03  4.46E-03 -2.89E-03
   49   0.135  -0.078  -0.114  1.8133E-03    85.40  2.9183E-03   -33.42  7.27E-05  9.04E-04  1.26E-04  1.57E-03  2.44E-03 -1.61E-03
   50   0.054  -0.093   0.171  1.4845E-02  -105.23  1.6076E-03    34.36 -8.01E-04 -6.38E-03  4.04E-03  1.29E-02  0.00E+00  0.00E+00
   51   0.054  -0.093  -0.171  1.7548E-03   -50.91  1.6063E-03  -144.98  1.69E-03  1.17E-04 -3.00E-04  1.64E-03  0.00E+00  0.00E+00
   52   0.026   0.026   0.171  3.7707E-02   -97.61  3.8523E-02   -99.40 -4.99E-03 -3.74E-02 -6.29E-03 -3.80E-02  0.00E+00 -0.00E+00
   53  -0.026   0.026   0.171  3.8971E-02    78.78  3.8497E-02   -99.34  7.58E-03  3.82E-02 -6.25E-03 -3.80E-02  0.00E+00  0.00E+00
   54  -0.026  -0.026   0.171  3.8971E-02    78.78  3.8497E-02    80.66  7.58E-03  3.82E-02  6.25E-03  3.80E-02  0.00E+00  0.00E+00
   55   0.026  -0.026   0.171  3.7707E-02   -97.61  3.8523E-02    80.60 -4.99E-03 -3.74E-02  6.29E-03  3.80E-02  0.00E+00  0.00E+00
   56   0.000   0.000  -0.171  1.3523E-03    18.00  1.7481E-14  -179.19  1.29E-03  4.18E-04  1.75E-14  2.48E-16  0.00E+00  0.00E+00


                               ---------- POWER BUDGET ---------
                               INPUT POWER   =  6.2566E-04 Watts
                               RADIATED POWER=  6.2566E-04 Watts
                               STRUCTURE LOSS=  0.0000E+00 Watts
                               NETWORK LOSS  =  0.0000E+00 Watts
                               EFFICIENCY    =  100.00 Percent


                             ---------- RADIATION PATTERNS -----------

 ---- ANGLES -----     ----- POWER GAINS -----       ---- POLARIZATION ----   ---- E(THETA) ----    ----- E(PHI) ------
  THETA      PHI       VERTC    HORIZ    TOTAL       AXIAL      TILT  SENSE   MAGNITUDE    PHASE    MAGNITUDE     PHASE
 DEGREES   DEGREES        DB       DB       DB       RATIO   DEGREES            VOLTS/M   DEGREES     VOLTS/M   DEGREES
    0.00      0.00     -8.11  -999.99    -8.11      0.0000      0.00 LINEAR  7.6168E-02     -2.26  5.5867E-13      1.15
    5.00      0.00     -8.34  -999.99    -8.34      0.0000      0.00 LINEAR  7.4161E-02     -2.08  5.3949E-13      4.87
   10.00      0.00     -8.85  -999.99    -8.85      0.0000      0.00 LINEAR  6.9950E-02     -2.76  5.2293E-13      8.32
   15.00      0.00     -9.70  -999.99    -9.70      0.0000      0.00 LINEAR  6.3376E-02     -4.63  5.0877E-13     11.44
   20.00      0.00    -11.01  -999.99   -11.01      0.0000      0.00 LINEAR  5.4496E-02     -8.24  4.9677E-13     14.20
   25.00      0.00    -12.94  -999.99   -12.94      0.0000      0.00 LINEAR  4.3641E-02    -14.78  4.8679E-13     16.55
   30.00      0.00    -15.74  -999.99   -15.74      0.0000      0.00 LINEAR  3.1646E-02    -27.33  4.7862E-13     18.48
   35.00      0.00    -19.30  -999.99   -19.30      0.0000      0.00 LINEAR  2.0997E-02    -55.34  4.7217E-13     19.96
   40.00      0.00    -19.97  -999.99   -19.97      0.0000     -0.00 LINEAR  1.9429E-02   -107.78  4.6739E-13     20.98
   45.00      0.00    -16.08  -999.99   -16.08      0.0000     -0.00 LINEAR  3.0421E-02   -145.28  4.6421E-13     21.52
   50.00      0.00    -12.40  -999.99   -12.40      0.0000     -0.00 LINEAR  4.6449E-02   -163.87  4.6265E-13     21.58
   55.00      0.00     -9.60  -999.99    -9.60      0.0000     -0.00 LINEAR  6.4157E-02   -175.93  4.6269E-13     21.14
   60.00      0.00     -7.40  -999.99    -7.40      0.0000     -0.00 LINEAR  8.2634E-02    174.32  4.6440E-13     20.23
   65.00      0.00     -5.61  -999.99    -5.61      0.0000     -0.00 LINEAR  1.0158E-01    165.52  4.6784E-13     18.84
   70.00      0.00     -4.10  -999.99    -4.10      0.0000     -0.00 LINEAR  1.2085E-01    157.18  4.7306E-13     16.99
   75.00      0.00     -2.80  -999.99    -2.80      0.0000     -0.00 LINEAR  1.4031E-01    149.15  4.8015E-13     14.71
   80.00      0.00     -1.67  -999.99    -1.67      0.0000     -0.00 LINEAR  1.5974E-01    141.42  4.8923E-13     12.03
   85.00      0.00     -0.70  -999.99    -0.70      0.0000     -0.00 LINEAR  1.7876E-01    133.99  5.0032E-13      9.02
   90.00      0.00      0.14  -999.99     0.14      0.0000     -0.00 LINEAR  1.9687E-01    126.92  5.1349E-13      5.73
   95.00      0.00      0.84  -999.99     0.84      0.0000     -0.00 LINEAR  2.1345E-01    120.23  5.2878E-13      2.21
  100.00      0.00      1.41  -999.99     1.41      0.0000     -0.00 LINEAR  2.2779E-01    113.95  5.4612E-13     -1.45
  105.00      0.00      1.83  -999.99     1.83      0.0000     -0.00 LINEAR  2.3918E-01    108.08  5.6534E-13     -5.19
  110.00      0.00      2.11  -999.99     2.11      0.0000     -0.00 LINEAR  2.4696E-01    102.65  5.8626E-13     -8.96
  115.00      0.00      2.24  -999.99     2.24      0.0000     -0.00 LINEAR  2.5056E-01     97.66  6.0861E-13    -12.69
  120.00      0.00      2.20  -999.99     2.20      0.0000     -0.00 LINEAR  2.4958E-01     93.15  6.3201E-13    -16.34
  125.00      0.00      2.00  -999.99     2.00      0.0000     -0.00 LINEAR  2.4379E-01     89.16  6.5616E-13    -19.88
  130.00      0.00      1.61  -999.99     1.61      0.0000     -0.00 LINEAR  2.3317E-01     85.74  6.8073E-13    -23.29
  135.00      0.00      1.02  -999.99     1.02      0.0000     -0.00 LINEAR  2.1793E-01     82.99  7.0539E-13    -26.54
  140.00      0.00      0.21  -999.99     0.21      0.0000     -0.00 LINEAR  1.9850E-01     81.07  7.2994E-13    -29.63
  145.00      0.00     -0.85  -999.99    -0.85      0.0000     -0.00 LINEAR  1.7555E-01     80.23  7.5423E-13    -32.56
  150.00      0.00     -2.22  -999.99    -2.22      0.0000     -0.00 LINEAR  1.5000E-01     80.93  7.7817E-13    -35.32
  155.00      0.00     -3.93  -999.99    -3.93      0.0000     -0.00 LINEAR  1.2313E-01     83.98  8.0177E-13    -37.92
  160.00      0.00     -6.02  -999.99    -6.02      0.0000     -0.00 LINEAR  9.6825E-02     90.95  8.2515E-13    -40.36
  165.00      0.00     -8.33  -999.99    -8.33      0.0000     -0.00 LINEAR  7.4259E-02    104.77  8.4839E-13    -42.65
  170.00      0.00    -10.04  -999.99   -10.04      0.0000     -0.00 LINEAR  6.0991E-02    128.42  8.7165E-13    -44.80
  175.00      0.00     -9.83  -999.99    -9.83      0.0000     -0.00 LINEAR  6.2452E-02    156.53  8.9510E-13    -46.80
  180.00      0.00     -8.13  -999.99    -8.13      0.0000     -0.00 LINEAR  7.5954E-02    177.76  9.1883E-13    -48.66
  185.00      0.00     -6.24  -999.99    -6.24      0.0000     -0.00 LINEAR  9.4385E-02   -168.89  9.4291E-13    -50.38
  190.00      0.00     -4.65  -999.99    -4.65      0.0000     -0.00 LINEAR  1.1335E-01   -159.93  9.6733E-13    -51.97
  195.00      0.00     -3.40  -999.99    -3.40      0.0000     -0.00 LINEAR  1.3093E-01   -152.98  9.9201E-13    -53.42
  200.00      0.00     -2.43  -999.99    -2.43      0.0000     -0.00 LINEAR  1.4641E-01   -146.80  1.0168E-12    -54.74
  205.00      0.00     -1.68  -999.99    -1.68      0.0000      0.00 LINEAR  1.5968E-01   -140.77  1.0415E-12    -55.91
  210.00      0.00     -1.08  -999.99    -1.08      0.0000      0.00 LINEAR  1.7095E-01   -134.56  1.0657E-12    -56.94
  215.00      0.00     -0.61  -999.99    -0.61      0.0000      0.00 LINEAR  1.8061E-01   -128.05  1.0890E-12    -57.83
  220.00      0.00     -0.21  -999.99    -0.21      0.0000      0.00 LINEAR  1.8905E-01   -121.22  1.1110E-12    -58.56
  225.00      0.00      0.13  -999.99     0.13      0.0000      0.00 LINEAR  1.9654E-01   -114.15  1.1313E-12    -59.13
  230.00      0.00      0.42  -999.99     0.42      0.0000      0.00 LINEAR  2.0321E-01   -106.92  1.1492E-12    -59.54
  235.00      0.00      0.66  -999.99     0.66      0.0000      0.00 LINEAR  2.0895E-01    -99.67  1.1644E-12    -59.77
  240.00      0.00      0.85  -999.99     0.85      0.0000      0.00 LINEAR  2.1350E-01    -92.48  1.1764E-12    -59.82
  245.00      0.00      0.97  -999.99     0.97      0.0000      0.00 LINEAR  2.1648E-01    -85.42  1.1847E-12    -59.68
  250.00      0.00      1.01  -999.99     1.01      0.0000      0.00 LINEAR  2.1748E-01    -78.55  1.1889E-12    -59.34
  255.00      0.00      0.95  -999.99     0.95      0.0000      0.00 LINEAR  2.1615E-01    -71.88  1.1887E-12    -58.79
  260.00      0.00      0.80  -999.99     0.80      0.0000      0.00 LINEAR  2.1226E-01    -65.41  1.1838E-12    -58.03
  265.00      0.00      0.52  -999.99     0.52      0.0000      0.00 LINEAR  2.0574E-01    -59.16  1.1742E-12    -57.06
  270.00      0.00      0.13  -999.99     0.13      0.0000      0.00 LINEAR  1.9669E-01    -53.13  1.1597E-12    -55.86
  275.00      0.00     -0.38  -999.99    -0.38      0.0000      0.00 LINEAR  1.8540E-01    -47.32  1.1405E-12    -54.43
  280.00      0.00     -1.02  -999.99    -1.02      0.0000      0.00 LINEAR  1.7229E-01    -41.75  1.1167E-12    -52.78
  285.00      0.00     -1.77  -999.99    -1.77      0.0000      0.00 LINEAR  1.5792E-01    -36.46  1.0885E-12    -50.89
  290.00      0.00     -2.64  -999.99    -2.64      0.0000      0.00 LINEAR  1.4293E-01    -31.49  1.0565E-12    -48.76
  295.00      0.00     -3.60  -999.99    -3.60      0.0000      0.00 LINEAR  1.2800E-01    -26.91  1.0210E-12    -46.39
  300.00      0.00     -4.62  -999.99    -4.62      0.0000      0.00 LINEAR  1.1379E-01    -22.79  9.8282E-13    -43.79
  305.00      0.00     -5.66  -999.99    -5.66      0.0000      0.00 LINEAR  1.0094E-01    -19.22  9.4255E-13    -40.95
  310.00      0.00     -6.66  -999.99    -6.66      0.0000      0.00 LINEAR  8.9943E-02    -16.30  9.0095E-13    -37.87
  315.00      0.00     -7.55  -999.99    -7.55      0.0000      0.00 LINEAR  8.1196E-02    -14.02  8.5885E-13    -34.56
  320.00      0.00     -8.25  -999.99    -8.25      0.0000      0.00 LINEAR  7.4899E-02    -12.32  8.1695E-13    -31.04
  325.00      0.00     -8.71  -999.99    -8.71      0.0000      0.00 LINEAR  7.1051E-02    -11.01  7.7606E-13    -27.32
  330.00      0.00     -8.91  -999.99    -8.91      0.0000      0.00 LINEAR  6.9433E-02     -9.84  7.3681E-13    -23.41
  335.00      0.00     -8.89  -999.99    -8.89      0.0000      0.00 LINEAR  6.9631E-02     -8.60  6.9979E-13    -19.37
  340.00      0.00     -8.71  -999.99    -8.71      0.0000      0.00 LINEAR  7.1082E-02     -7.21  6.6546E-13    -15.23
  345.00      0.00     -8.46  -999.99    -8.46      0.0000      0.00 LINEAR  7.3136E-02     -5.72  6.3408E-13    -11.04
  350.00      0.00     -8.23  -999.99    -8.23      0.0000      0.00 LINEAR  7.5104E-02     -4.27  6.0586E-13     -6.87
  355.00      0.00     -8.09  -999.99    -8.09      0.0000      0.00 LINEAR  7.6317E-02     -3.06  5.8074E-13     -2.79
  360.00      0.00     -8.11  -999.99    -8.11      0.0000      0.00 LINEAR  7.6168E-02     -2.26  5.5867E-13      1.15



*****  DATA CARD N0.   5 EX   0     2     1     0  1.00000E+00  0.00000E+00  0.00000E+00  0.00000E+00  0.00000E+00  0.00000E+00
*****  DATA CARD N0.   6 XQ   0     0     0     0  0.00000E+00  0.00000E+00  0.00000E+00  0.00000E+00  0.00000E+00  0.00000E+00


                        --------- ANTENNA INPUT PARAMETERS ---------
  TAG   SEG       VOLTAGE (VOLTS)         CURRENT (AMPS)         IMPEDANCE (OHMS)        ADMITTANCE (MHOS)     POWER
  NO.   NO.     REAL      IMAGINARY     REAL      IMAGINARY     REAL      IMAGINARY    REAL       IMAGINARY   (WATTS)
    2     5  1.0000E+00  0.0000E+00  1.5026E-02 -6.9132E-03  5.4925E+01  2.5270E+01  1.5026E-02 -6.9132E-03  7.5130E-03


                           -------- CURRENTS AND LOCATION --------
                                  DISTANCES IN WAVELENGTHS

   SEG  TAG    COORDINATES OF SEGM CENTER     SEGM    ------------- CURRENT (AMPS) -------------
   No:  No:       X         Y         Z      LENGTH     REAL      IMAGINARY    MAGN        PHASE

     1    1    0.0000    0.0000    0.1942   0.04662 -9.0550E-04  1.7154E-03  1.9397E-03  117.829
     2    1    0.0000    0.0000    0.2408   0.04662 -7.8768E-04  1.5063E-03  1.6999E-03  117.605
     3    1    0.0000    0.0000    0.2875   0.04662 -5.5897E-04  1.0890E-03  1.2241E-03  117.170
     4    1    0.0000    0.0000    0.3341   0.04662 -2.2827E-04  4.5625E-04  5.1017E-04  116.580
     5    2    0.1827    0.0000    0.0000   0.05470  1.5026E-02 -6.9132E-03  1.6540E-02  -24.707
     6    2    0.2374    0.0000    0.0000   0.05470  1.3800E-02 -7.4043E-03  1.5661E-02  -28.216
     7    2    0.2921    0.0000    0.0000   0.05470  1.1401E-02 -6.7802E-03  1.3265E-02  -30.740
     8    2    0.3468    0.0000    0.0000   0.05470  7.8887E-03 -5.0212E-03  9.3512E-03  -32.477
     9    2    0.4015    0.0000    0.0000   0.05470  3.2560E-03 -2.1815E-03  3.9192E-03  -33.821


                                       --------- SURFACE PATCH CURRENTS ---------
                                                 DISTANCE IN WAVELENGTHS
                                                 CURRENT IN AMPS/METER

                                 --------- SURFACE COMPONENTS --------    ---------------- RECTANGULAR COMPONENTS ----------------
  PCH   --- PATCH CENTER ---     TANGENT VECTOR 1     TANGENT VECTOR 2    ------- X ------    ------- Y ------    ------- Z ------
  No:    X       Y       Z       MAG.       PHASE     MAG.       PHASE    REAL   IMAGINARY    REAL   IMAGINARY    REAL   IMAGINARY
    1   0.155   0.000   0.114  7.3974E-14  -136.42  4.0390E-02   140.22  0.00E+00  0.00E+00 -5.36E-14 -5.10E-14 -3.10E-02  2.58E-02
    2   0.155   0.024   0.024  8.6315E-02   153.29  8.8850E-02   152.99  0.00E+00  0.00E+00 -7.71E-02  3.88E-02 -7.92E-02  4.04E-02
    3   0.155  -0.024   0.024  8.6315E-02   -26.71  8.8850E-02   152.99  0.00E+00  0.00E+00  7.71E-02 -3.88E-02 -7.92E-02  4.04E-02
    4   0.155  -0.024  -0.024  8.6312E-02   -26.71  9.1286E-02   -26.15  0.00E+00  0.00E+00  7.71E-02 -3.88E-02  8.19E-02 -4.02E-02
    5   0.155   0.024  -0.024  8.6312E-02   153.29  9.1286E-02   -26.15  0.00E+00  0.00E+00 -7.71E-02  3.88E-02  8.19E-02 -4.02E-02
    6   0.155   0.000  -0.114  7.8209E-14  -126.69  4.1814E-02   -37.70  0.00E+00  0.00E+00 -4.67E-14 -6.27E-14  3.31E-02 -2.56E-02
    7   0.135   0.078   0.114  1.7533E-02   121.83  2.2201E-02   129.65  4.62E-03 -7.45E-03 -8.01E-03  1.29E-02 -1.42E-02  1.71E-02
    8   0.135   0.078   0.000  3.7641E-02   141.92  1.3236E-03     2.35  1.48E-02 -1.16E-02 -2.57E-02  2.01E-02  1.32E-03  5.43E-05
    9   0.135   0.078  -0.114  1.7516E-02   121.83  2.3097E-02   -45.71  4.62E-03 -7.44E-03 -8.00E-03  1.29E-02  1.61E-02 -1.65E-02
   10   0.107   0.000   0.171  2.0213E-02   -85.04  4.0264E-13   -59.53  1.75E-03 -2.01E-02  2.04E-13 -3.47E-13  0.00E+00  0.00E+00
   11   0.107   0.000  -0.171  1.6874E-02   -87.11  4.1489E-13   122.22  8.52E-04 -1.69E-02  2.21E-13 -3.51E-13  0.00E+00  0.00E+00
   12   0.078   0.135   0.114  1.6710E-02    87.52  6.2225E-03   106.04 -6.27E-04 -1.45E-02  3.62E-04  8.35E-03 -1.72E-03  5.98E-03
   13   0.078   0.135   0.000  1.5767E-02   103.50  1.3328E-03     2.80  3.19E-03 -1.33E-02 -1.84E-03  7.67E-03  1.33E-03  6.52E-05
   14   0.078   0.135  -0.114  1.6654E-02    87.45  6.8118E-03   -56.50 -6.43E-04 -1.44E-02  3.71E-04  8.32E-03  3.76E-03 -5.68E-03
   15  -0.000   0.155   0.114  1.3965E-02    55.64  1.7990E-03    89.81 -7.88E-03 -1.15E-02 -4.02E-14 -5.88E-14  5.84E-06  1.80E-03
   16  -0.000   0.155   0.000  1.1670E-02    60.48  1.3310E-03     3.41 -5.75E-03 -1.02E-02 -2.93E-14 -5.18E-14  1.33E-03  7.93E-05
   17  -0.000   0.155  -0.114  1.3951E-02    55.62  2.2807E-03   -31.00 -7.88E-03 -1.15E-02 -4.02E-14 -5.88E-14  1.95E-03 -1.17E-03
   18   0.054   0.093   0.171  9.5477E-03   -98.11  1.5574E-02    70.79 -5.11E-03 -1.75E-02  1.40E-03 -8.33E-04  0.00E+00  0.00E+00
   19   0.054   0.093  -0.171  6.5731E-03  -109.90  1.5542E-02  -109.24 -5.55E-03 -1.58E-02  6.24E-04  1.98E-03  0.00E+00 -0.00E+00
   20  -0.078   0.135   0.114  1.2623E-02    34.28  1.5698E-03   179.32 -9.03E-03 -6.16E-03 -5.22E-03 -3.55E-03 -1.57E-03  1.86E-05
   21  -0.078   0.135   0.000  9.6163E-03    34.25  1.3372E-03     3.28 -6.88E-03 -4.69E-03 -3.97E-03 -2.71E-03  1.33E-03  7.65E-05
   22  -0.078   0.135  -0.114  1.2602E-02    34.42  3.6442E-03     5.05 -9.00E-03 -6.17E-03 -5.20E-03 -3.56E-03  3.63E-03  3.21E-04
   23  -0.135   0.078   0.114  6.7433E-03    22.42  4.2066E-03  -179.29 -3.12E-03 -1.29E-03 -5.40E-03 -2.23E-03 -4.21E-03 -5.19E-05
   24  -0.135   0.078   0.000  5.6061E-03    21.56  1.3441E-03     3.20 -2.61E-03 -1.03E-03 -4.52E-03 -1.78E-03  1.34E-03  7.51E-05
   25  -0.135   0.078  -0.114  6.7305E-03    22.44  6.2415E-03     6.27 -3.11E-03 -1.28E-03 -5.39E-03 -2.22E-03  6.20E-03  6.81E-04
   26  -0.054   0.093   0.171  5.5923E-03     3.15  1.3634E-02    38.74 -1.20E-02 -7.54E-03 -4.82E-04 -4.00E-03  0.00E+00  0.00E+00
   27  -0.054   0.093  -0.171  5.8822E-03    37.27  1.3609E-02  -141.24 -1.15E-02 -9.16E-03 -1.25E-03 -1.18E-03  0.00E+00  0.00E+00
   28  -0.155  -0.000   0.114  8.2937E-14   133.82  4.2242E-03   178.48 -5.86E-25  6.11E-25  5.74E-14 -5.98E-14 -4.22E-03  1.12E-04
   29  -0.155  -0.000   0.000  1.0930E-13   110.89  1.3471E-03     3.05 -3.98E-25  1.04E-24  3.90E-14 -1.02E-13  1.35E-03  7.18E-05
   30  -0.155  -0.000  -0.114  8.5518E-14   133.70  6.3064E-03     2.13 -6.03E-25  6.31E-25  5.91E-14 -6.18E-14  6.30E-03  2.34E-04
   31  -0.135  -0.078   0.114  6.7433E-03  -157.58  4.2066E-03  -179.29 -3.12E-03 -1.29E-03  5.40E-03  2.23E-03 -4.21E-03 -5.19E-05
   32  -0.135  -0.078   0.000  5.6061E-03  -158.44  1.3441E-03     3.20 -2.61E-03 -1.03E-03  4.52E-03  1.78E-03  1.34E-03  7.51E-05
   33  -0.135  -0.078  -0.114  6.7305E-03  -157.56  6.2415E-03     6.27 -3.11E-03 -1.28E-03  5.39E-03  2.22E-03  6.20E-03  6.81E-04
   34  -0.107  -0.000   0.171  1.1520E-02     9.48  6.9470E-14   144.84 -1.14E-02 -1.90E-03 -5.92E-14 -5.94E-14  0.00E+00  0.00E+00
   35  -0.107  -0.000  -0.171  1.1648E-02    26.24  7.2671E-14   -35.58 -1.04E-02 -5.15E-03 -4.75E-14 -9.48E-14  0.00E+00  0.00E+00
   36  -0.078  -0.135   0.114  1.2623E-02  -145.72  1.5698E-03   179.32 -9.03E-03 -6.16E-03  5.22E-03  3.55E-03 -1.57E-03  1.86E-05
   37  -0.078  -0.135   0.000  9.6163E-03  -145.75  1.3372E-03     3.28 -6.88E-03 -4.69E-03  3.97E-03  2.71E-03  1.33E-03  7.65E-05
   38  -0.078  -0.135  -0.114  1.2602E-02  -145.58  3.6442E-03     5.05 -9.00E-03 -6.17E-03  5.20E-03  3.56E-03  3.63E-03  3.21E-04
   39   0.000  -0.155   0.114  1.3965E-02  -124.36  1.7990E-03    89.81 -7.88E-03 -1.15E-02 -1.21E-13 -1.77E-13  5.84E-06  1.80E-03
   40   0.000  -0.155   0.000  1.1670E-02  -119.52  1.3310E-03     3.41 -5.75E-03 -1.02E-02 -8.80E-14 -1.55E-13  1.33E-03  7.93E-05
   41   0.000  -0.155  -0.114  1.3951E-02  -124.38  2.2807E-03   -31.00 -7.88E-03 -1.15E-02 -1.21E-13 -1.76E-13  1.95E-03 -1.17E-03
   42  -0.054  -0.093   0.171  5.5923E-03     3.15  1.3634E-02  -141.26 -1.20E-02 -7.54E-03  4.82E-04  4.00E-03  0.00E+00  0.00E+00
   43  -0.054  -0.093  -0.171  5.8822E-03    37.27  1.3609E-02    38.76 -1.15E-02 -9.16E-03  1.25E-03  1.18E-03  0.00E+00  0.00E+00
   44   0.078  -0.135   0.114  1.6710E-02   -92.48  6.2225E-03   106.04 -6.27E-04 -1.45E-02 -3.62E-04 -8.35E-03 -1.72E-03  5.98E-03
   45   0.078  -0.135   0.000  1.5767E-02   -76.50  1.3328E-03     2.80  3.19E-03 -1.33E-02  1.84E-03 -7.67E-03  1.33E-03  6.52E-05
   46   0.078  -0.135  -0.114  1.6654E-02   -92.55  6.8118E-03   -56.50 -6.43E-04 -1.44E-02 -3.71E-04 -8.32E-03  3.76E-03 -5.68E-03
   47   0.135  -0.078   0.114  1.7533E-02   -58.17  2.2201E-02   129.65  4.62E-03 -7.45E-03  8.01E-03 -1.29E-02 -1.42E-02  1.71E-02
   48   0.135  -0.078   0.000  3.7641E-02   -38.08  1.3236E-03     2.35  1.48E-02 -1.16E-02  2.57E-02 -2.01E-02  1.32E-03  5.43E-05
   49   0.135  -0.078  -0.114  1.7516E-02   -58.17  2.3097E-02   -45.71  4.62E-03 -7.44E-03  8.00E-03 -1.29E-02  1.61E-02 -1.65E-02
   50   0.054  -0.093   0.171  9.5477E-03   -98.11  1.5574E-02  -109.21 -5.11E-03 -1.75E-02 -1.40E-03  8.33E-04  0.00E+00 -0.00E+00
   51   0.054  -0.093  -0.171  6.5731E-03  -109.90  1.5542E-02    70.76 -5.55E-03 -1.58E-02 -6.24E-04 -1.98E-03  0.00E+00  0.00E+00
   52   0.026   0.026   0.171  2.0111E-02   -97.14  8.6900E-03   -62.33 -2.50E-03 -2.00E-02  4.04E-03 -7.70E-03  0.00E+00  0.00E+00
   53  -0.026   0.026   0.171  1.2974E-02  -174.05  8.9442E-03   -64.51 -1.29E-02 -1.35E-03  3.85E-03 -8.07E-03  0.00E+00  0.00E+00
   54  -0.026  -0.026   0.171  1.2974E-02  -174.05  8.9442E-03   115.49 -1.29E-02 -1.35E-03 -3.85E-03  8.07E-03  0.00E+00  0.00E+00
   55   0.026  -0.026   0.171  2.0111E-02   -97.14  8.6900E-03   117.67 -2.50E-03 -2.00E-02 -4.04E-03  7.70E-03  0.00E+00  0.00E+00
   56   0.000   0.000  -0.171  1.3088E-02  -126.31  1.3127E-13    85.71 -7.75E-03 -1.05E-02 -9.81E-15 -1.31E-13  0.00E+00  0.00E+00


                               ---------- POWER BUDGET ---------
                               INPUT POWER   =  7.5130E-03 Watts
                               RADIATED POWER=  7.5130E-03 Watts
                               STRUCTURE LOSS=  0.0000E+00 Watts
                               NETWORK LOSS  =  0.0000E+00 Watts
                               EFFICIENCY    =  100.00 Percent


                        ----------- ISOLATION DATA -----------

 ------- COUPLING BETWEEN ------     MAXIMUM     ---------- FOR MAXIMUM COUPLING ----------
            SEG              SEG    COUPLING  LOAD IMPEDANCE (2ND SEG)         INPUT IMPEDANCE 
 TAG  SEG   No:   TAG  SEG   No:      (DB)        REAL     IMAGINARY         REAL       IMAGINARY
    1    1     1     2    1     5    -13.709   5.58248E+01 -2.06383E+01   1.82293E+01 -1.16438E+02



*****  DATA CARD N0.   7 EN   0     0     0     0  0.00000E+00  0.00000E+00  0.00000E+00  0.00000E+00  0.00000E+00  0.00000E+00

  TOTAL RUN TIME: 120 msec