


                               __________________________________________
                              |                                          |
                              |  NUMERICAL ELECTROMAGNETICS CODE (nec2c) |
                              |   Translated to 'C' in Double Precision  |
                              |__________________________________________|



                               ---------------- COMMENTS ----------------
                               12 ELEMENT LOG PERIODIC ANTENNA IN FREE SPACE 
                               78 SEGMENTS. SIGMA=O/L RECEIVING AND TRANS. PATTERNS. 
                               DIPOLE LENGTH TO DIAMETER RATIO=150. 
                               TAU=0.93. SIGMA=0.70. BOOM IMPEDANCE=50. OHMS. 



                               -------- STRUCTURE SPECIFICATION --------
                                     COORDINATES MUST BE INPUT IN
                                     METERS OR BE SCALED TO METERS
                                     BEFORE STRUCTURE INPUT IS ENDED

  WIRE                                                                                 SEG FIRST  LAST  TAG
   No:        X1         Y1         Z1         X2         Y2         Z2       RADIUS   No:   SEG   SEG  No:
     1      0.0000    -1.0000     0.0000     0.0000     1.0000     0.0000     0.0067     5     1     5    1
     2     -0.7527    -1.0753     0.0000    -0.7527     1.0753     0.0000     0.0072     5     6    10    2
     3     -1.5620    -1.1562     0.0000    -1.5620     1.1562     0.0000     0.0077     5    11    15    3
     4     -2.4323    -1.2432     0.0000    -2.4323     1.2432     0.0000     0.0083     5    16    20    4
     5     -3.3680    -1.3368     0.0000    -3.3680     1.3368     0.0000     0.0089     5    21    25    5
     6     -4.3742    -1.4374     0.0000    -4.3742     1.4374     0.0000     0.0096     7    26    32    6
     7     -5.4562    -1.5456     0.0000    -5.4562     1.5456     0.0000     0.0103     7    33    39    7
     8     -6.6195    -1.6619     0.0000    -6.6195     1.6619     0.0000     0.0111     7    40    46    8
     9     -7.8705    -1.7870     0.0000    -7.8705     1.7870     0.0000     0.0119     7    47    53    9
    10     -9.2156    -1.9215     0.0000    -9.2156     1.9215     0.0000     0.0128     7    54    60   10
    11    -10.6619    -2.0662     0.0000   -10.6619     2.0662     0.0000     0.0138     9    61    69   11
    12    -12.2171    -2.2217     0.0000   -12.2171     2.2217     0.0000     0.0148     9    70    78   12

     TOTAL SEGMENTS USED: 78   SEGMENTS IN A SYMMETRIC CELL: 78   SYMMETRY FLAG: 0


                               ---------- SEGMENTATION DATA ----------
                                        COORDINATES IN METERS
                            I+ AND I- INDICATE THE SEGMENTS BEFORE AND AFTER I

   SEG    COORDINATES OF SEGM CENTER     SEGM    ORIENTATION ANGLES    WIRE    CONNECTION DATA   TAG
   No:       X         Y         Z      LENGTH     ALPHA      BETA    RADIUS    I-     I    I+   No:
     1    0.0000   -0.8000    0.0000    0.4000    0.0000   90.0000    0.0067     0     1     2     1
     2    0.0000   -0.4000    0.0000    0.4000    0.0000   90.0000    0.0067     1     2     3     1
     3    0.0000   -0.0000    0.0000    0.4000    0.0000   90.0000    0.0067     2     3     4     1
     4    0.0000    0.4000    0.0000    0.4000    0.0000   90.0000    0.0067     3     4     5     1
     5    0.0000    0.8000    0.0000    0.4000    0.0000   90.0000    0.0067     4     5     0     1
     6   -0.7527   -0.8602    0.0000    0.4301    0.0000   90.0000    0.0072     0     6     7     2
     7   -0.7527   -0.4301    0.0000    0.4301    0.0000   90.0000    0.0072     6     7     8     2
     8   -0.7527    0.0000    0.0000    0.4301    0.0000   90.0000    0.0072     7     8     9     2
     9   -0.7527    0.4301    0.0000    0.4301    0.0000   90.0000    0.0072     8     9    10     2
    10   -0.7527    0.8602    0.0000    0.4301    0.0000   90.0000    0.0072     9    10     0     2
    11   -1.5620   -0.9250    0.0000    0.4625    0.0000   90.0000    0.0077     0    11    12     3
    12   -1.5620   -0.4625    0.0000    0.4625    0.0000   90.0000    0.0077    11    12    13     3
    13   -1.5620    0.0000    0.0000    0.4625    0.0000   90.0000    0.0077    12    13    14     3
    14   -1.5620    0.4625    0.0000    0.4625    0.0000   90.0000    0.0077    13    14    15     3
    15   -1.5620    0.9250    0.0000    0.4625    0.0000   90.0000    0.0077    14    15     0     3
    16   -2.4323   -0.9946    0.0000    0.4973    0.0000   90.0000    0.0083     0    16    17     4
    17   -2.4323   -0.4973    0.0000    0.4973    0.0000   90.0000    0.0083    16    17    18     4
    18   -2.4323   -0.0000    0.0000    0.4973    0.0000   90.0000    0.0083    17    18    19     4
    19   -2.4323    0.4973    0.0000    0.4973    0.0000   90.0000    0.0083    18    19    20     4
    20   -2.4323    0.9946    0.0000    0.4973    0.0000   90.0000    0.0083    19    20     0     4
    21   -3.3680   -1.0694    0.0000    0.5347    0.0000   90.0000    0.0089     0    21    22     5
    22   -3.3680   -0.5347    0.0000    0.5347    0.0000   90.0000    0.0089    21    22    23     5
    23   -3.3680    0.0000    0.0000    0.5347    0.0000   90.0000    0.0089    22    23    24     5
    24   -3.3680    0.5347    0.0000    0.5347    0.0000   90.0000    0.0089    23    24    25     5
    25   -3.3680    1.0694    0.0000    0.5347    0.0000   90.0000    0.0089    24    25     0     5
    26   -4.3742   -1.2321    0.0000    0.4107    0.0000   90.0000    0.0096     0    26    27     6
    27   -4.3742   -0.8214    0.0000    0.4107    0.0000   90.0000    0.0096    26    27    28     6
    28   -4.3742   -0.4107    0.0000    0.4107    0.0000   90.0000    0.0096    27    28    29     6
    29   -4.3742    0.0000    0.0000    0.4107    0.0000   90.0000    0.0096    28    29    30     6
    30   -4.3742    0.4107    0.0000    0.4107    0.0000   90.0000    0.0096    29    30    31     6
    31   -4.3742    0.8214    0.0000    0.4107    0.0000   90.0000    0.0096    30    31    32     6
    32   -4.3742    1.2321    0.0000    0.4107    0.0000   90.0000    0.0096    31    32     0     6
    33   -5.4562   -1.3248    0.0000    0.4416    0.0000   90.0000    0.0103     0    33    34     7
    34   -5.4562   -0.8832    0.0000    0.4416    0.0000   90.0000    0.0103    33    34    35     7
    35   -5.4562   -0.4416    0.0000    0.4416    0.0000   90.0000    0.0103    34    35    36     7
    36   -5.4562   -0.0000    0.0000    0.4416    0.0000   90.0000    0.0103    35    36    37     7
    37   -5.4562    0.4416    0.0000    0.4416    0.0000   90.0000    0.0103    36    37    38     7
    38   -5.4562    0.8832    0.0000    0.4416    0.0000   90.0000    0.0103    37    38    39     7
    39   -5.4562    1.3248    0.0000    0.4416    0.0000   90.0000    0.0103    38    39     0     7
    40   -6.6195   -1.4245    0.0000    0.4748    0.0000   90.0000    0.0111     0    40    41     8
    41   -6.6195   -0.9497    0.0000    0.4748    0.0000   90.0000    0.0111    40    41    42     8
    42   -6.6195   -0.4748    0.0000    0.4748    0.0000   90.0000    0.0111    41    42    43     8
    43   -6.6195   -0.0000    0.0000    0.4748    0.0000   90.0000    0.0111    42    43    44     8
    44   -6.6195    0.4748    0.0000    0.4748    0.0000   90.0000    0.0111    43    44    45     8
    45   -6.6195    0.9497    0.0000    0.4748    0.0000   90.0000    0.0111    44    45    46     8
    46   -6.6195    1.4245    0.0000    0.4748    0.0000   90.0000    0.0111    45    46     0     8
    47   -7.8705   -1.5317    0.0000    0.5106    0.0000   90.0000    0.0119     0    47    48     9
    48   -7.8705   -1.0211    0.0000    0.5106    0.0000   90.0000    0.0119    47    48    49     9
    49   -7.8705   -0.5106    0.0000    0.5106    0.0000   90.0000    0.0119    48    49    50     9
    50   -7.8705   -0.0000    0.0000    0.5106    0.0000   90.0000    0.0119    49    50    51     9
    51   -7.8705    0.5106    0.0000    0.5106    0.0000   90.0000    0.0119    50    51    52     9
    52   -7.8705    1.0211    0.0000    0.5106    0.0000   90.0000    0.0119    51    52    53     9
    53   -7.8705    1.5317    0.0000    0.5106    0.0000   90.0000    0.0119    52    53     0     9
    54   -9.2156   -1.6470    0.0000    0.5490    0.0000   90.0000    0.0128     0    54    55    10
    55   -9.2156   -1.0980    0.0000    0.5490    0.0000   90.0000    0.0128    54    55    56    10
    56   -9.2156   -0.5490    0.0000    0.5490    0.0000   90.0000    0.0128    55    56    57    10
    57   -9.2156   -0.0000    0.0000    0.5490    0.0000   90.0000    0.0128    56    57    58    10
    58   -9.2156    0.5490    0.0000    0.5490    0.0000   90.0000    0.0128    57    58    59    10
    59   -9.2156    1.0980    0.0000    0.5490    0.0000   90.0000    0.0128    58    59    60    10
    60   -9.2156    1.6470    0.0000    0.5490    0.0000   90.0000    0.0128    59    60     0    10
    61  -10.6619   -1.8366    0.0000    0.4592    0.0000   90.0000    0.0138     0    61    62    11
    62  -10.6619   -1.3775    0.0000    0.4592    0.0000   90.0000    0.0138    61    62    63    11
    63  -10.6619   -0.9183    0.0000    0.4592    0.0000   90.0000    0.0138    62    63    64    11
    64  -10.6619   -0.4592    0.0000    0.4592    0.0000   90.0000    0.0138    63    64    65    11
    65  -10.6619   -0.0000    0.0000    0.4592    0.0000   90.0000    0.0138    64    65    66    11
    66  -10.6619    0.4592    0.0000    0.4592    0.0000   90.0000    0.0138    65    66    67    11
    67  -10.6619    0.9183    0.0000    0.4592    0.0000   90.0000    0.0138    66    67    68    11
    68  -10.6619    1.3775    0.0000    0.4592    0.0000   90.0000    0.0138    67    68    69    11
    69  -10.6619    1.8366    0.0000    0.4592    0.0000   90.0000    0.0138    68    69     0    11
    70  -12.2171   -1.9748    0.0000    0.4937    0.0000   90.0000    0.0148     0    70    71    12
    71  -12.2171   -1.4811    0.0000    0.4937    0.0000   90.0000    0.0148    70    71    72    12
    72  -12.2171   -0.9874    0.0000    0.4937    0.0000   90.0000    0.0148    71    72    73    12
    73  -12.2171   -0.4937    0.0000    0.4937    0.0000   90.0000    0.0148    72    73    74    12
    74  -12.2171    0.0000    0.0000    0.4937    0.0000   90.0000    0.0148    73    74    75    12
    75  -12.2171    0.4937    0.0000    0.4937    0.0000   90.0000    0.0148    74    75    76    12
    76  -12.2171    0.9874    0.0000    0.4937    0.0000   90.0000    0.0148    75    76    77    12
    77  -12.2171    1.4811    0.0000    0.4937    0.0000   90.0000    0.0148    76    77    78    12
    78  -12.2171    1.9748    0.0000    0.4937    0.0000   90.0000    0.0148    77    78     0    12



  DATA CARD No:   1 FR   0     0     0     0  4.62900E+01  0.00000E+00  0.00000E+00  0.00000E+00  0.00000E+00  0.00000E+00
  DATA CARD No:   2 TL   1     3     2     3 -5.00000E+01  0.00000E+00  0.00000E+00  0.00000E+00  0.00000E+00  0.00000E+00
  DATA CARD No:   3 TL   2     3     3     3 -5.00000E+01  0.00000E+00  0.00000E+00  0.00000E+00  0.00000E+00  0.00000E+00
  DATA CARD No:   4 TL   3     3     4     3 -5.00000E+01  0.00000E+00  0.00000E+00  0.00000E+00  0.00000E+00  0.00000E+00
  DATA CARD No:   5 TL   4     3     5     3 -5.00000E+01  0.00000E+00  0.00000E+00  0.00000E+00  0.00000E+00  0.00000E+00
  DATA CARD No:   6 TL   5     3     6     4 -5.00000E+01  0.00000E+00  0.00000E+00  0.00000E+00  0.00000E+00  0.00000E+00
  DATA CARD No:   7 TL   6     4     7     4 -5.00000E+01  0.00000E+00  0.00000E+00  0.00000E+00  0.00000E+00  0.00000E+00
  DATA CARD No:   8 TL   7     4     8     4 -5.00000E+01  0.00000E+00  0.00000E+00  0.00000E+00  0.00000E+00  0.00000E+00
  DATA CARD No:   9 TL   8     4     9     4 -5.00000E+01  0.00000E+00  0.00000E+00  0.00000E+00  0.00000E+00  0.00000E+00
  DATA CARD No:  10 TL   9     4    10     4 -5.00000E+01  0.00000E+00  0.00000E+00  0.00000E+00  0.00000E+00  0.00000E+00
  DATA CARD No:  11 TL  10     4    11     5 -5.00000E+01  0.00000E+00  0.00000E+00  0.00000E+00  0.00000E+00  0.00000E+00
  DATA CARD No:  12 TL  11     5    12     5 -5.00000E+01  0.00000E+00  0.00000E+00  0.00000E+00  2.00000E-02  0.00000E+00
  DATA CARD No:  13 EX   0     1     3    10  0.00000E+00  1.00000E+00  0.00000E+00  0.00000E+00  0.00000E+00  0.00000E+00
  DATA CARD No:  14 RP   0    37     1  1110  9.00000E+01  0.00000E+00 -5.00000E+00  0.00000E+00  0.00000E+00  0.00000E+00


                               --------- FREQUENCY --------
                                FREQUENCY : 4.6290E+01 MHz
                                WAVELENGTH: 6.4766E+00 Mtr

                        APPROXIMATE INTEGRATION EMPLOYED FOR SEGMENTS 
                        THAT ARE MORE THAN 1.000 WAVELENGTHS APART


                          ------ STRUCTURE IMPEDANCE LOADING ------
                                 THIS STRUCTURE IS NOT LOADED


                            -------- ANTENNA ENVIRONMENT --------
                            FREE SPACE


                             ---------- MATRIX TIMING ----------
                               FILL: 30 msec  FACTOR: 10 msec


                                            ---------- NETWORK DATA ----------
  -- FROM -  --- TO --      TRANSMISSION LINE        --------- SHUNT ADMITTANCES (MHOS) ---------   LINE
  TAG   SEG  TAG   SEG    IMPEDANCE      LENGTH     ----- END ONE -----      ----- END TWO -----   TYPE
  No:   No:  No:   No:         OHMS      METERS      REAL      IMAGINARY      REAL      IMAGINARY
    1     3    2     8   5.0000E+01  7.5270E-01   0.0000E+00  0.0000E+00   0.0000E+00  0.0000E+00  CROSSED
    2     8    3    13   5.0000E+01  8.0930E-01   0.0000E+00  0.0000E+00   0.0000E+00  0.0000E+00  CROSSED
    3    13    4    18   5.0000E+01  8.7030E-01   0.0000E+00  0.0000E+00   0.0000E+00  0.0000E+00  CROSSED
    4    18    5    23   5.0000E+01  9.3570E-01   0.0000E+00  0.0000E+00   0.0000E+00  0.0000E+00  CROSSED
    5    23    6    29   5.0000E+01  1.0062E+00   0.0000E+00  0.0000E+00   0.0000E+00  0.0000E+00  CROSSED
    6    29    7    36   5.0000E+01  1.0820E+00   0.0000E+00  0.0000E+00   0.0000E+00  0.0000E+00  CROSSED
    7    36    8    43   5.0000E+01  1.1633E+00   0.0000E+00  0.0000E+00   0.0000E+00  0.0000E+00  CROSSED
    8    43    9    50   5.0000E+01  1.2510E+00   0.0000E+00  0.0000E+00   0.0000E+00  0.0000E+00  CROSSED
    9    50   10    57   5.0000E+01  1.3451E+00   0.0000E+00  0.0000E+00   0.0000E+00  0.0000E+00  CROSSED
   10    57   11    65   5.0000E+01  1.4463E+00   0.0000E+00  0.0000E+00   0.0000E+00  0.0000E+00  CROSSED
   11    65   12    74   5.0000E+01  1.5552E+00   0.0000E+00  0.0000E+00   2.0000E-02  0.0000E+00  CROSSED

   MAXIMUM RELATIVE ASYMMETRY OF THE DRIVING POINT ADMITTANCE
   MATRIX IS  1.073E-02 FOR SEGMENTS 65 AND 23
   RMS RELATIVE ASYMMETRY IS  5.722E-03


                          --------- STRUCTURE EXCITATION DATA AT NETWORK CONNECTION POINTS --------
  TAG   SEG       VOLTAGE (VOLTS)          CURRENT (AMPS)         IMPEDANCE (OHMS)       ADMITTANCE (MHOS)     POWER
  No:   No:     REAL      IMAGINARY     REAL      IMAGINARY     REAL      IMAGINARY     REAL      IMAGINARY   (WATTS)
    2     8 -7.2710E-01 -6.7661E-01  1.9009E-03 -1.8744E-04 -3.4407E+02 -3.8988E+02 -1.2725E-03  1.4419E-03 -6.2765E-04
    3    13  1.0817E+00 -1.1418E-01 -2.2869E-03  6.8384E-03 -6.2598E+01 -1.3725E+02 -2.7507E-03  6.0312E-03 -1.6273E-03
    4    18 -5.0315E-01  9.6218E-01 -1.0683E-02 -4.5806E-03  7.1634E+00 -9.3137E+01  8.2095E-04  1.0674E-02  4.8393E-04
    5    23 -6.5896E-01 -7.2471E-01  3.4800E-03 -1.3715E-02  3.8191E+01 -5.7737E+01  7.9695E-03  1.2048E-02  3.8231E-03
    6    29  7.5624E-01 -2.8060E-01  1.2747E-02  1.6912E-03  5.5430E+01 -2.9366E+01  1.4087E-02  7.4632E-03  4.5827E-03
    7    36 -5.6779E-02  5.1027E-01  1.2012E-03  9.6287E-03  5.1459E+01  1.2316E+01  1.8380E-02 -4.3992E-03  2.4225E-03
    8    43 -2.9921E-01 -2.4497E-01 -5.0476E-03  1.3788E-03  4.2826E+01  6.0230E+01  7.8411E-03 -1.1028E-02  5.8627E-04
    9    50  3.6079E-01 -9.8188E-02 -5.5279E-04 -2.3071E-03  4.8122E+00  1.5754E+02  1.9372E-04 -6.3417E-03  1.3542E-05
   10    57 -2.7850E-02  3.4010E-01  9.0907E-04  3.6382E-04  1.0265E+02  3.3304E+02  8.4521E-04 -2.7422E-03  4.9209E-05
   11    65 -3.3862E-01 -9.2552E-02 -5.6606E-04  5.7265E-04  2.1390E+02  3.7989E+02  1.1254E-03 -1.9987E-03  6.9341E-05
   12    74  1.3497E-01 -2.9465E-01 -4.7876E-04 -7.2482E-04  1.9740E+02  3.1660E+02  1.4181E-03 -2.2744E-03  7.4475E-05
    1     3  0.0000E+00  1.0000E+00 -2.3014E-03  1.8230E-03  2.1149E+02 -2.6699E+02  1.8230E-03  2.3014E-03  9.1151E-04


                        --------- ANTENNA INPUT PARAMETERS ---------
  TAG   SEG       VOLTAGE (VOLTS)         CURRENT (AMPS)         IMPEDANCE (OHMS)        ADMITTANCE (MHOS)     POWER
  No:   No:     REAL      IMAGINARY     REAL      IMAGINARY     REAL      IMAGINARY    REAL       IMAGINARY   (WATTS)
    1     3  0.0000E+00  1.0000E+00 -2.5030E-04  2.3624E-02  4.2325E+01 -4.4845E-01  2.3624E-02  2.5030E-04  1.1812E-02


                           -------- CURRENTS AND LOCATION --------
                                  DISTANCES IN WAVELENGTHS

   SEG  TAG    COORDINATES OF SEGM CENTER     SEGM    ------------- CURRENT (AMPS) -------------
   No:  No:       X         Y         Z      LENGTH     REAL      IMAGINARY    MAGN        PHASE
     1    1    0.0000   -0.1235    0.0000   0.06176 -5.6831E-04  6.9701E-04  8.9933E-04  129.192
     2    1    0.0000   -0.0618    0.0000   0.06176 -1.5715E-03  1.5440E-03  2.2031E-03  135.505
     3    1    0.0000   -0.0000    0.0000   0.06176 -2.3014E-03  1.8230E-03  2.9360E-03  141.616
     4    1    0.0000    0.0618    0.0000   0.06176 -1.5715E-03  1.5440E-03  2.2031E-03  135.505
     5    1    0.0000    0.1235    0.0000   0.06176 -5.6831E-04  6.9701E-04  8.9933E-04  129.192
     6    2   -0.1162   -0.1328    0.0000   0.06641  4.7369E-04  1.9927E-04  5.1390E-04   22.815
     7    2   -0.1162   -0.0664    0.0000   0.06641  1.3187E-03  1.5391E-04  1.3277E-03    6.657
     8    2   -0.1162    0.0000    0.0000   0.06641  1.9009E-03 -1.8744E-04  1.9101E-03   -5.632
     9    2   -0.1162    0.0664    0.0000   0.06641  1.3187E-03  1.5391E-04  1.3277E-03    6.657
    10    2   -0.1162    0.1328    0.0000   0.06641  4.7369E-04  1.9927E-04  5.1390E-04   22.815
    11    3   -0.2412   -0.1428    0.0000   0.07141 -9.2255E-04  2.1564E-03  2.3455E-03  113.162
    12    3   -0.2412   -0.0714    0.0000   0.07141 -1.9920E-03  5.2787E-03  5.6420E-03  110.675
    13    3   -0.2412    0.0000    0.0000   0.07141 -2.2869E-03  6.8384E-03  7.2106E-03  108.491
    14    3   -0.2412    0.0714    0.0000   0.07141 -1.9920E-03  5.2787E-03  5.6420E-03  110.675
    15    3   -0.2412    0.1428    0.0000   0.07141 -9.2255E-04  2.1564E-03  2.3455E-03  113.162
    16    4   -0.3756   -0.1536    0.0000   0.07678 -3.5736E-03 -1.5100E-03  3.8795E-03 -157.094
    17    4   -0.3756   -0.0768    0.0000   0.07678 -8.5166E-03 -3.6153E-03  9.2522E-03 -156.999
    18    4   -0.3756   -0.0000    0.0000   0.07678 -1.0683E-02 -4.5806E-03  1.1624E-02 -156.792
    19    4   -0.3756    0.0768    0.0000   0.07678 -8.5166E-03 -3.6153E-03  9.2522E-03 -156.999
    20    4   -0.3756    0.1536    0.0000   0.07678 -3.5736E-03 -1.5100E-03  3.8795E-03 -157.094
    21    5   -0.5200   -0.1651    0.0000   0.08256  9.5637E-04 -4.7273E-03  4.8231E-03  -78.563
    22    5   -0.5200   -0.0826    0.0000   0.08256  2.5350E-03 -1.1146E-02  1.1431E-02  -77.187
    23    5   -0.5200    0.0000    0.0000   0.08256  3.4800E-03 -1.3715E-02  1.4150E-02  -75.762
    24    5   -0.5200    0.0826    0.0000   0.08256  2.5350E-03 -1.1146E-02  1.1431E-02  -77.187
    25    5   -0.5200    0.1651    0.0000   0.08256  9.5637E-04 -4.7273E-03  4.8231E-03  -78.563
    26    6   -0.6754   -0.1902    0.0000   0.06341  3.3822E-03  1.3729E-04  3.3850E-03    2.325
    27    6   -0.6754   -0.1268    0.0000   0.06341  8.3198E-03  5.5794E-04  8.3385E-03    3.837
    28    6   -0.6754   -0.0634    0.0000   0.06341  1.1516E-02  1.1472E-03  1.1573E-02    5.689
    29    6   -0.6754    0.0000    0.0000   0.06341  1.2747E-02  1.6912E-03  1.2859E-02    7.557
    30    6   -0.6754    0.0634    0.0000   0.06341  1.1516E-02  1.1472E-03  1.1573E-02    5.689
    31    6   -0.6754    0.1268    0.0000   0.06341  8.3198E-03  5.5794E-04  8.3385E-03    3.837
    32    6   -0.6754    0.1902    0.0000   0.06341  3.3822E-03  1.3729E-04  3.3850E-03    2.325
    33    7   -0.8425   -0.2046    0.0000   0.06818  5.7118E-04  2.5954E-03  2.6575E-03   77.588
    34    7   -0.8425   -0.1364    0.0000   0.06818  1.2269E-03  6.4067E-03  6.5231E-03   79.159
    35    7   -0.8425   -0.0682    0.0000   0.06818  1.3926E-03  8.8142E-03  8.9235E-03   81.022
    36    7   -0.8425   -0.0000    0.0000   0.06818  1.2012E-03  9.6287E-03  9.7033E-03   82.889
    37    7   -0.8425    0.0682    0.0000   0.06818  1.3926E-03  8.8142E-03  8.9235E-03   81.022
    38    7   -0.8425    0.1364    0.0000   0.06818  1.2269E-03  6.4067E-03  6.5231E-03   79.159
    39    7   -0.8425    0.2046    0.0000   0.06818  5.7118E-04  2.5954E-03  2.6575E-03   77.588
    40    8   -1.0221   -0.2199    0.0000   0.07331 -1.4101E-03  5.2465E-04  1.5045E-03  159.591
    41    8   -1.0221   -0.1466    0.0000   0.07331 -3.4847E-03  1.1847E-03  3.6806E-03  161.223
    42    8   -1.0221   -0.0733    0.0000   0.07331 -4.7322E-03  1.4458E-03  4.9481E-03  163.011
    43    8   -1.0221   -0.0000    0.0000   0.07331 -5.0476E-03  1.3788E-03  5.2325E-03  164.722
    44    8   -1.0221    0.0733    0.0000   0.07331 -4.7322E-03  1.4458E-03  4.9481E-03  163.011
    45    8   -1.0221    0.1466    0.0000   0.07331 -3.4847E-03  1.1847E-03  3.6806E-03  161.223
    46    8   -1.0221    0.2199    0.0000   0.07331 -1.4101E-03  5.2465E-04  1.5045E-03  159.591
    47    9   -1.2152   -0.2365    0.0000   0.07883 -2.0199E-04 -7.4266E-04  7.6964E-04 -105.215
    48    9   -1.2152   -0.1577    0.0000   0.07883 -4.6188E-04 -1.7935E-03  1.8521E-03 -104.441
    49    9   -1.2152   -0.0788    0.0000   0.07883 -5.7091E-04 -2.3192E-03  2.3884E-03 -103.830
    50    9   -1.2152   -0.0000    0.0000   0.07883 -5.5279E-04 -2.3071E-03  2.3724E-03 -103.474
    51    9   -1.2152    0.0788    0.0000   0.07883 -5.7091E-04 -2.3192E-03  2.3884E-03 -103.830
    52    9   -1.2152    0.1577    0.0000   0.07883 -4.6188E-04 -1.7935E-03  1.8521E-03 -104.441
    53    9   -1.2152    0.2365    0.0000   0.07883 -2.0199E-04 -7.4266E-04  7.6964E-04 -105.215
    54   10   -1.4229   -0.2543    0.0000   0.08477  3.9087E-04  9.5745E-05  4.0242E-04   13.764
    55   10   -1.4229   -0.1695    0.0000   0.08477  8.9773E-04  2.4939E-04  9.3172E-04   15.525
    56   10   -1.4229   -0.0848    0.0000   0.08477  1.0563E-03  3.4515E-04  1.1113E-03   18.094
    57   10   -1.4229   -0.0000    0.0000   0.08477  9.0907E-04  3.6382E-04  9.7917E-04   21.812
    58   10   -1.4229    0.0848    0.0000   0.08477  1.0563E-03  3.4515E-04  1.1113E-03   18.094
    59   10   -1.4229    0.1695    0.0000   0.08477  8.9773E-04  2.4939E-04  9.3172E-04   15.525
    60   10   -1.4229    0.2543    0.0000   0.08477  3.9087E-04  9.5745E-05  4.0242E-04   13.764
    61   11   -1.6462   -0.2836    0.0000   0.07089 -1.5010E-04  2.7079E-04  3.0961E-04  119.000
    62   11   -1.6462   -0.2127    0.0000   0.07089 -3.7763E-04  6.3252E-04  7.3667E-04  120.838
    63   11   -1.6462   -0.1418    0.0000   0.07089 -5.3277E-04  8.0838E-04  9.6816E-04  123.387
    64   11   -1.6462   -0.0709    0.0000   0.07089 -5.9417E-04  7.6873E-04  9.7159E-04  127.701
    65   11   -1.6462   -0.0000    0.0000   0.07089 -5.6606E-04  5.7265E-04  8.0520E-04  134.669
    66   11   -1.6462    0.0709    0.0000   0.07089 -5.9417E-04  7.6873E-04  9.7159E-04  127.701
    67   11   -1.6462    0.1418    0.0000   0.07089 -5.3277E-04  8.0838E-04  9.6816E-04  123.387
    68   11   -1.6462    0.2127    0.0000   0.07089 -3.7763E-04  6.3252E-04  7.3667E-04  120.838
    69   11   -1.6462    0.2836    0.0000   0.07089 -1.5010E-04  2.7079E-04  3.0961E-04  119.000
    70   12   -1.8864   -0.3049    0.0000   0.07623 -2.4071E-04 -1.9982E-04  3.1284E-04 -140.302
    71   12   -1.8864   -0.2287    0.0000   0.07623 -5.6305E-04 -5.0501E-04  7.5635E-04 -138.111
    72   12   -1.8864   -0.1525    0.0000   0.07623 -7.1495E-04 -7.0916E-04  1.0070E-03 -135.233
    73   12   -1.8864   -0.0762    0.0000   0.07623 -6.6718E-04 -7.7880E-04  1.0255E-03 -130.586
    74   12   -1.8864    0.0000    0.0000   0.07623 -4.7876E-04 -7.2482E-04  8.6866E-04 -123.446
    75   12   -1.8864    0.0762    0.0000   0.07623 -6.6718E-04 -7.7880E-04  1.0255E-03 -130.586
    76   12   -1.8864    0.1525    0.0000   0.07623 -7.1495E-04 -7.0916E-04  1.0070E-03 -135.233
    77   12   -1.8864    0.2287    0.0000   0.07623 -5.6305E-04 -5.0501E-04  7.5635E-04 -138.111
    78   12   -1.8864    0.3049    0.0000   0.07623 -2.4071E-04 -1.9982E-04  3.1284E-04 -140.302


                               ---------- POWER BUDGET ---------
                               INPUT POWER   =  1.1812E-02 Watts
                               RADIATED POWER=  1.0762E-02 Watts
                               STRUCTURE LOSS=  0.0000E+00 Watts
                               NETWORK LOSS  =  1.0504E-03 Watts
                               EFFICIENCY    =   91.11 Percent


                             ---------- RADIATION PATTERNS -----------

 ---- ANGLES -----     --- DIRECTIVE GAINS ---      ---- POLARIZATION ----   ---- E(THETA) ----    ----- E(PHI) ------
  THETA      PHI       VERTC    HORIZ    TOTAL       AXIAL      TILT  SENSE   MAGNITUDE    PHASE    MAGNITUDE     PHASE
 DEGREES   DEGREES        DB       DB       DB       RATIO   DEGREES            VOLTS/M   DEGREES     VOLTS/M   DEGREES
   90.00      0.00   -999.99     9.75     9.75      0.0000     90.00 LINEAR  0.0000E+00      0.00  2.4692E+00     24.00
   85.00      0.00   -999.99     9.70     9.70      0.0000     90.00 LINEAR  0.0000E+00      0.00  2.4535E+00     24.80
   80.00      0.00   -999.99     9.53     9.53      0.0000     90.00 LINEAR  0.0000E+00      0.00  2.4069E+00     27.17
   75.00      0.00   -999.99     9.25     9.25      0.0000     90.00 LINEAR  0.0000E+00      0.00  2.3309E+00     31.04
   70.00      0.00   -999.99     8.86     8.86      0.0000     90.00 LINEAR  0.0000E+00      0.00  2.2289E+00     36.26
   65.00      0.00   -999.99     8.37     8.37      0.0000     90.00 LINEAR  0.0000E+00      0.00  2.1062E+00     42.70
   60.00      0.00   -999.99     7.79     7.79      0.0000     90.00 LINEAR  0.0000E+00      0.00  1.9702E+00     50.23
   55.00      0.00   -999.99     7.15     7.15      0.0000     90.00 LINEAR  0.0000E+00      0.00  1.8292E+00     58.83
   50.00      0.00   -999.99     6.45     6.45      0.0000     90.00 LINEAR  0.0000E+00      0.00  1.6885E+00     68.66
   45.00      0.00   -999.99     5.70     5.70      0.0000     90.00 LINEAR  0.0000E+00      0.00  1.5475E+00     80.09
   40.00      0.00   -999.99     4.81     4.81      0.0000    -90.00 LINEAR  0.0000E+00      0.00  1.3976E+00     93.57
   35.00      0.00   -999.99     3.67     3.67      0.0000    -90.00 LINEAR  0.0000E+00      0.00  1.2260E+00    109.48
   30.00      0.00   -999.99     2.10     2.10      0.0000    -90.00 LINEAR  0.0000E+00      0.00  1.0231E+00    128.02
   25.00      0.00   -999.99    -0.14    -0.14      0.0000    -90.00 LINEAR  0.0000E+00      0.00  7.9031E-01    149.26
   20.00      0.00   -999.99    -3.40    -3.40      0.0000    -90.00 LINEAR  0.0000E+00      0.00  5.4333E-01    173.42
   15.00      0.00   -999.99    -8.27    -8.27      0.0000    -90.00 LINEAR  0.0000E+00      0.00  3.1002E-01   -158.23
   10.00      0.00   -999.99   -16.15   -16.15      0.0000    -90.00 LINEAR  0.0000E+00      0.00  1.2519E-01   -117.43
    5.00      0.00   -999.99   -23.15   -23.15      0.0000     90.00 LINEAR  0.0000E+00      0.00  5.5864E-02    -13.82
    0.00      0.00   -999.99   -19.63   -19.63      0.0000     90.00 LINEAR  0.0000E+00      0.00  8.3786E-02     48.11
   -5.00      0.00   -999.99   -20.66   -20.66      0.0000     90.00 LINEAR  0.0000E+00      0.00  7.4441E-02     65.13
  -10.00      0.00   -999.99   -22.14   -22.14      0.0000     90.00 LINEAR  0.0000E+00      0.00  6.2760E-02     42.17
  -15.00      0.00   -999.99   -17.70   -17.70      0.0000     90.00 LINEAR  0.0000E+00      0.00  1.0465E-01     27.37
  -20.00      0.00   -999.99   -14.43   -14.43      0.0000     90.00 LINEAR  0.0000E+00      0.00  1.5251E-01     39.77
  -25.00      0.00   -999.99   -13.31   -13.31      0.0000     90.00 LINEAR  0.0000E+00      0.00  1.7357E-01     59.10
  -30.00      0.00   -999.99   -13.96   -13.96      0.0000     90.00 LINEAR  0.0000E+00      0.00  1.6108E-01     79.31
  -35.00      0.00   -999.99   -16.41   -16.41      0.0000    -90.00 LINEAR  0.0000E+00      0.00  1.2149E-01     97.49
  -40.00      0.00   -999.99   -21.41   -21.41      0.0000    -90.00 LINEAR  0.0000E+00      0.00  6.8328E-02    108.31
  -45.00      0.00   -999.99   -29.94   -29.94      0.0000     90.00 LINEAR  0.0000E+00      0.00  2.5563E-02     73.49
  -50.00      0.00   -999.99   -24.33   -24.33      0.0000     90.00 LINEAR  0.0000E+00      0.00  4.8777E-02     15.68
  -55.00      0.00   -999.99   -19.91   -19.91      0.0000     90.00 LINEAR  0.0000E+00      0.00  8.1142E-02     17.75
  -60.00      0.00   -999.99   -17.99   -17.99      0.0000     90.00 LINEAR  0.0000E+00      0.00  1.0123E-01     26.41
  -65.00      0.00   -999.99   -17.28   -17.28      0.0000     90.00 LINEAR  0.0000E+00      0.00  1.0981E-01     34.84
  -70.00      0.00   -999.99   -17.24   -17.24      0.0000     90.00 LINEAR  0.0000E+00      0.00  1.1037E-01     41.58
  -75.00      0.00   -999.99   -17.53   -17.53      0.0000     90.00 LINEAR  0.0000E+00      0.00  1.0672E-01     46.27
  -80.00      0.00   -999.99   -17.92   -17.92      0.0000     90.00 LINEAR  0.0000E+00      0.00  1.0204E-01     49.06
  -85.00      0.00   -999.99   -18.23   -18.23      0.0000     90.00 LINEAR  0.0000E+00      0.00  9.8478E-02     50.40
  -90.00      0.00   -999.99   -18.35   -18.35      0.0000     90.00 LINEAR  0.0000E+00      0.00  9.7178E-02     50.78


                              ---------- NORMALIZED GAIN ----------
                                       MAJOR AXIS GAIN
                                   NORMALIZATION FACTOR: 9.75 db

    ---- ANGLES ----                ---- ANGLES ----                ---- ANGLES ----
    THETA      PHI        GAIN      THETA      PHI        GAIN      THETA      PHI       GAIN
   DEGREES   DEGREES        DB     DEGREES   DEGREES        DB     DEGREES   DEGREES       DB
     90.00      0.00      0.00       25.00      0.00     -9.90      -35.00      0.00    -26.16
     85.00      0.00     -0.06       20.00      0.00    -13.15      -40.00      0.00    -31.16
     80.00      0.00     -0.22       15.00      0.00    -18.02      -45.00      0.00    -39.70
     75.00      0.00     -0.50       10.00      0.00    -25.90      -50.00      0.00    -34.09
     70.00      0.00     -0.89        5.00      0.00    -32.91      -55.00      0.00    -29.67
     65.00      0.00     -1.38        0.00      0.00    -29.39      -60.00      0.00    -27.74
     60.00      0.00     -1.96       -5.00      0.00    -30.41      -65.00      0.00    -27.04
     55.00      0.00     -2.61      -10.00      0.00    -31.90      -70.00      0.00    -26.99
     50.00      0.00     -3.30      -15.00      0.00    -27.46      -75.00      0.00    -27.29
     45.00      0.00     -4.06      -20.00      0.00    -24.19      -80.00      0.00    -27.68
     40.00      0.00     -4.94      -25.00      0.00    -23.06      -85.00      0.00    -27.98
     35.00      0.00     -6.08      -30.00      0.00    -23.71      -90.00      0.00    -28.10
     30.00      0.00     -7.65   



  DATA CARD No:  15 EN   0     0     0     0  0.00000E+00  0.00000E+00  0.00000E+00  0.00000E+00  0.00000E+00  0.00000E+00

  TOTAL RUN TIME: 50 msec