


                                __________________________________________
                               |                                          |
                               | NUMERICAL ELECTROMAGNETICS CODE (nec2++) |
                               | Translated to 'C++' in Double Precision  |
                               |        Version 1.0.8 [2004-12-20]        |
                               |__________________________________________|



                               ---------------- COMMENTS ----------------
                                12 ELEMENT LOG PERIODIC ANTENNA IN FREE SPACE 
                                78 SEGMENTS. SIGMA=O/L RECEIVING AND TRANS. PATTERNS. 
                                DIPOLE LENGTH TO DIAMETER RATIO=150. 
                                TAU=0.93. SIGMA=0.70. BOOM IMPEDANCE=50. OHMS. 



                                -------- STRUCTURE SPECIFICATION --------
                                COORDINATES MUST BE INPUT IN
                                METERS OR BE SCALED TO METERS
                                BEFORE STRUCTURE INPUT IS ENDED
  WIRE                                                                                 SEG FIRST  LAST  TAG
   No:        X1         Y1         Z1         X2         Y2         Z2       RADIUS   No:   SEG   SEG  No:

     1      0.0000    -1.0000     0.0000     0.0000     1.0000     0.0000     0.0067     5     1     5    1
     2     -0.7527    -1.0753     0.0000    -0.7527     1.0753     0.0000     0.0072     5     6    10    2
     3     -1.5620    -1.1562     0.0000    -1.5620     1.1562     0.0000     0.0077     5    11    15    3
     4     -2.4323    -1.2432     0.0000    -2.4323     1.2432     0.0000     0.0083     5    16    20    4
     5     -3.3680    -1.3368     0.0000    -3.3680     1.3368     0.0000     0.0089     5    21    25    5
     6     -4.3742    -1.4374     0.0000    -4.3742     1.4374     0.0000     0.0096     7    26    32    6
     7     -5.4562    -1.5456     0.0000    -5.4562     1.5456     0.0000     0.0103     7    33    39    7
     8     -6.6195    -1.6619     0.0000    -6.6195     1.6619     0.0000     0.0111     7    40    46    8
     9     -7.8705    -1.7870     0.0000    -7.8705     1.7870     0.0000     0.0119     7    47    53    9
    10     -9.2156    -1.9215     0.0000    -9.2156     1.9215     0.0000     0.0128     7    54    60   10
    11    -10.6619    -2.0662     0.0000   -10.6619     2.0662     0.0000     0.0138     9    61    69   11
    12    -12.2171    -2.2217     0.0000   -12.2171     2.2217     0.0000     0.0148     9    70    78   12

     TOTAL SEGMENTS USED: 78   SEGMENTS IN A SYMMETRIC CELL: 78   SYMMETRY FLAG: 0


                               ---------- SEGMENTATION DATA ----------
                                        COORDINATES IN METERS
                            I+ AND I- INDICATE THE SEGMENTS BEFORE AND AFTER I

   SEG    COORDINATES OF SEGM CENTER     SEGM    ORIENTATION ANGLES    WIRE    CONNECTION DATA   TAG
   No:       X         Y         Z      LENGTH     ALPHA      BETA    RADIUS    I-     I    I+   NO:
     1    0.0000   -0.8000    0.0000    0.4000    0.0000   90.0000    0.0067     0     1     2     1
     2    0.0000   -0.4000    0.0000    0.4000    0.0000   90.0000    0.0067     1     2     3     1
     3    0.0000    0.0000    0.0000    0.4000    0.0000   90.0000    0.0067     2     3     4     1
     4    0.0000    0.4000    0.0000    0.4000    0.0000   90.0000    0.0067     3     4     5     1
     5    0.0000    0.8000    0.0000    0.4000    0.0000   90.0000    0.0067     4     5     0     1
     6   -0.7527   -0.8602    0.0000    0.4301    0.0000   90.0000    0.0072     0     6     7     2
     7   -0.7527   -0.4301    0.0000    0.4301    0.0000   90.0000    0.0072     6     7     8     2
     8   -0.7527   -0.0000    0.0000    0.4301    0.0000   90.0000    0.0072     7     8     9     2
     9   -0.7527    0.4301    0.0000    0.4301    0.0000   90.0000    0.0072     8     9    10     2
    10   -0.7527    0.8602    0.0000    0.4301    0.0000   90.0000    0.0072     9    10     0     2
    11   -1.5620   -0.9250    0.0000    0.4625    0.0000   90.0000    0.0077     0    11    12     3
    12   -1.5620   -0.4625    0.0000    0.4625    0.0000   90.0000    0.0077    11    12    13     3
    13   -1.5620    0.0000    0.0000    0.4625    0.0000   90.0000    0.0077    12    13    14     3
    14   -1.5620    0.4625    0.0000    0.4625    0.0000   90.0000    0.0077    13    14    15     3
    15   -1.5620    0.9250    0.0000    0.4625    0.0000   90.0000    0.0077    14    15     0     3
    16   -2.4323   -0.9946    0.0000    0.4973    0.0000   90.0000    0.0083     0    16    17     4
    17   -2.4323   -0.4973    0.0000    0.4973    0.0000   90.0000    0.0083    16    17    18     4
    18   -2.4323    0.0000    0.0000    0.4973    0.0000   90.0000    0.0083    17    18    19     4
    19   -2.4323    0.4973    0.0000    0.4973    0.0000   90.0000    0.0083    18    19    20     4
    20   -2.4323    0.9946    0.0000    0.4973    0.0000   90.0000    0.0083    19    20     0     4
    21   -3.3680   -1.0694    0.0000    0.5347    0.0000   90.0000    0.0089     0    21    22     5
    22   -3.3680   -0.5347    0.0000    0.5347    0.0000   90.0000    0.0089    21    22    23     5
    23   -3.3680   -0.0000    0.0000    0.5347    0.0000   90.0000    0.0089    22    23    24     5
    24   -3.3680    0.5347    0.0000    0.5347    0.0000   90.0000    0.0089    23    24    25     5
    25   -3.3680    1.0694    0.0000    0.5347    0.0000   90.0000    0.0089    24    25     0     5
    26   -4.3742   -1.2321    0.0000    0.4107    0.0000   90.0000    0.0096     0    26    27     6
    27   -4.3742   -0.8214    0.0000    0.4107    0.0000   90.0000    0.0096    26    27    28     6
    28   -4.3742   -0.4107    0.0000    0.4107    0.0000   90.0000    0.0096    27    28    29     6
    29   -4.3742    0.0000    0.0000    0.4107    0.0000   90.0000    0.0096    28    29    30     6
    30   -4.3742    0.4107    0.0000    0.4107    0.0000   90.0000    0.0096    29    30    31     6
    31   -4.3742    0.8214    0.0000    0.4107    0.0000   90.0000    0.0096    30    31    32     6
    32   -4.3742    1.2321    0.0000    0.4107    0.0000   90.0000    0.0096    31    32     0     6
    33   -5.4562   -1.3248    0.0000    0.4416    0.0000   90.0000    0.0103     0    33    34     7
    34   -5.4562   -0.8832    0.0000    0.4416    0.0000   90.0000    0.0103    33    34    35     7
    35   -5.4562   -0.4416    0.0000    0.4416    0.0000   90.0000    0.0103    34    35    36     7
    36   -5.4562   -0.0000    0.0000    0.4416    0.0000   90.0000    0.0103    35    36    37     7
    37   -5.4562    0.4416    0.0000    0.4416    0.0000   90.0000    0.0103    36    37    38     7
    38   -5.4562    0.8832    0.0000    0.4416    0.0000   90.0000    0.0103    37    38    39     7
    39   -5.4562    1.3248    0.0000    0.4416    0.0000   90.0000    0.0103    38    39     0     7
    40   -6.6195   -1.4245    0.0000    0.4748    0.0000   90.0000    0.0111     0    40    41     8
    41   -6.6195   -0.9497    0.0000    0.4748    0.0000   90.0000    0.0111    40    41    42     8
    42   -6.6195   -0.4748    0.0000    0.4748    0.0000   90.0000    0.0111    41    42    43     8
    43   -6.6195   -0.0000    0.0000    0.4748    0.0000   90.0000    0.0111    42    43    44     8
    44   -6.6195    0.4748    0.0000    0.4748    0.0000   90.0000    0.0111    43    44    45     8
    45   -6.6195    0.9497    0.0000    0.4748    0.0000   90.0000    0.0111    44    45    46     8
    46   -6.6195    1.4245    0.0000    0.4748    0.0000   90.0000    0.0111    45    46     0     8
    47   -7.8705   -1.5317    0.0000    0.5106    0.0000   90.0000    0.0119     0    47    48     9
    48   -7.8705   -1.0211    0.0000    0.5106    0.0000   90.0000    0.0119    47    48    49     9
    49   -7.8705   -0.5106    0.0000    0.5106    0.0000   90.0000    0.0119    48    49    50     9
    50   -7.8705    0.0000    0.0000    0.5106    0.0000   90.0000    0.0119    49    50    51     9
    51   -7.8705    0.5106    0.0000    0.5106    0.0000   90.0000    0.0119    50    51    52     9
    52   -7.8705    1.0211    0.0000    0.5106    0.0000   90.0000    0.0119    51    52    53     9
    53   -7.8705    1.5317    0.0000    0.5106    0.0000   90.0000    0.0119    52    53     0     9
    54   -9.2156   -1.6470    0.0000    0.5490    0.0000   90.0000    0.0128     0    54    55    10
    55   -9.2156   -1.0980    0.0000    0.5490    0.0000   90.0000    0.0128    54    55    56    10
    56   -9.2156   -0.5490    0.0000    0.5490    0.0000   90.0000    0.0128    55    56    57    10
    57   -9.2156    0.0000    0.0000    0.5490    0.0000   90.0000    0.0128    56    57    58    10
    58   -9.2156    0.5490    0.0000    0.5490    0.0000   90.0000    0.0128    57    58    59    10
    59   -9.2156    1.0980    0.0000    0.5490    0.0000   90.0000    0.0128    58    59    60    10
    60   -9.2156    1.6470    0.0000    0.5490    0.0000   90.0000    0.0128    59    60     0    10
    61  -10.6619   -1.8366    0.0000    0.4592    0.0000   90.0000    0.0138     0    61    62    11
    62  -10.6619   -1.3775    0.0000    0.4592    0.0000   90.0000    0.0138    61    62    63    11
    63  -10.6619   -0.9183    0.0000    0.4592    0.0000   90.0000    0.0138    62    63    64    11
    64  -10.6619   -0.4592    0.0000    0.4592    0.0000   90.0000    0.0138    63    64    65    11
    65  -10.6619    0.0000    0.0000    0.4592    0.0000   90.0000    0.0138    64    65    66    11
    66  -10.6619    0.4592    0.0000    0.4592    0.0000   90.0000    0.0138    65    66    67    11
    67  -10.6619    0.9183    0.0000    0.4592    0.0000   90.0000    0.0138    66    67    68    11
    68  -10.6619    1.3775    0.0000    0.4592    0.0000   90.0000    0.0138    67    68    69    11
    69  -10.6619    1.8366    0.0000    0.4592    0.0000   90.0000    0.0138    68    69     0    11
    70  -12.2171   -1.9748    0.0000    0.4937    0.0000   90.0000    0.0148     0    70    71    12
    71  -12.2171   -1.4811    0.0000    0.4937    0.0000   90.0000    0.0148    70    71    72    12
    72  -12.2171   -0.9874    0.0000    0.4937    0.0000   90.0000    0.0148    71    72    73    12
    73  -12.2171   -0.4937    0.0000    0.4937    0.0000   90.0000    0.0148    72    73    74    12
    74  -12.2171   -0.0000    0.0000    0.4937    0.0000   90.0000    0.0148    73    74    75    12
    75  -12.2171    0.4937    0.0000    0.4937    0.0000   90.0000    0.0148    74    75    76    12
    76  -12.2171    0.9874    0.0000    0.4937    0.0000   90.0000    0.0148    75    76    77    12
    77  -12.2171    1.4811    0.0000    0.4937    0.0000   90.0000    0.0148    76    77    78    12
    78  -12.2171    1.9748    0.0000    0.4937    0.0000   90.0000    0.0148    77    78     0    12



*****  DATA CARD N0.   1 FR   0     0     0     0  4.62900E+01  0.00000E+00  0.00000E+00  0.00000E+00  0.00000E+00  0.00000E+00
*****  DATA CARD N0.   2 TL   1     3     2     3 -5.00000E+01  0.00000E+00  0.00000E+00  0.00000E+00  0.00000E+00  0.00000E+00
*****  DATA CARD N0.   3 TL   2     3     3     3 -5.00000E+01  0.00000E+00  0.00000E+00  0.00000E+00  0.00000E+00  0.00000E+00
*****  DATA CARD N0.   4 TL   3     3     4     3 -5.00000E+01  0.00000E+00  0.00000E+00  0.00000E+00  0.00000E+00  0.00000E+00
*****  DATA CARD N0.   5 TL   4     3     5     3 -5.00000E+01  0.00000E+00  0.00000E+00  0.00000E+00  0.00000E+00  0.00000E+00
*****  DATA CARD N0.   6 TL   5     3     6     4 -5.00000E+01  0.00000E+00  0.00000E+00  0.00000E+00  0.00000E+00  0.00000E+00
*****  DATA CARD N0.   7 TL   6     4     7     4 -5.00000E+01  0.00000E+00  0.00000E+00  0.00000E+00  0.00000E+00  0.00000E+00
*****  DATA CARD N0.   8 TL   7     4     8     4 -5.00000E+01  0.00000E+00  0.00000E+00  0.00000E+00  0.00000E+00  0.00000E+00
*****  DATA CARD N0.   9 TL   8     4     9     4 -5.00000E+01  0.00000E+00  0.00000E+00  0.00000E+00  0.00000E+00  0.00000E+00
*****  DATA CARD N0.  10 TL   9     4    10     4 -5.00000E+01  0.00000E+00  0.00000E+00  0.00000E+00  0.00000E+00  0.00000E+00
*****  DATA CARD N0.  11 TL  10     4    11     5 -5.00000E+01  0.00000E+00  0.00000E+00  0.00000E+00  0.00000E+00  0.00000E+00
*****  DATA CARD N0.  12 TL  11     5    12     5 -5.00000E+01  0.00000E+00  0.00000E+00  0.00000E+00  2.00000E-02  0.00000E+00
*****  DATA CARD N0.  13 EX   0     1     3    10  0.00000E+00  1.00000E+00  0.00000E+00  0.00000E+00  0.00000E+00  0.00000E+00
*****  DATA CARD N0.  14 RP   0    37     1  1110  9.00000E+01  0.00000E+00 -5.00000E+00  0.00000E+00  0.00000E+00  0.00000E+00


                               --------- FREQUENCY --------
                               FREQUENCY=  4.6290E+01 MHZ
                               WAVELENGTH= 6.4766E+00 METERS


                        APPROXIMATE INTEGRATION EMPLOYED FOR SEGMENTS
                        THAT ARE MORE THAN 1.000 WAVELENGTHS APART



                          ------ STRUCTURE IMPEDANCE LOADING ------
                                 THIS STRUCTURE IS NOT LOADED



                            -------- ANTENNA ENVIRONMENT --------
                            FREE SPACE



                             ---------- MATRIX TIMING ----------
                               FILL= 60 msec  FACTOR: 140 msec


                                            ---------- NETWORK DATA ----------
  -- FROM -  --- TO --      TRANSMISSION LINE        --------- SHUNT ADMITTANCES (MHOS) ---------   LINE
  TAG   SEG  TAG   SEG    IMPEDANCE      LENGTH     ----- END ONE -----      ----- END TWO -----   TYPE
  No:   No:  No:   No:         OHMS      METERS      REAL      IMAGINARY      REAL      IMAGINARY
    1     3    2     8   5.0000E+01  7.5270E-01   0.0000E+00  0.0000E+00   0.0000E+00  0.0000E+00  CROSSED
    2     8    3    13   5.0000E+01  8.0930E-01   0.0000E+00  0.0000E+00   0.0000E+00  0.0000E+00  CROSSED
    3    13    4    18   5.0000E+01  8.7030E-01   0.0000E+00  0.0000E+00   0.0000E+00  0.0000E+00  CROSSED
    4    18    5    23   5.0000E+01  9.3570E-01   0.0000E+00  0.0000E+00   0.0000E+00  0.0000E+00  CROSSED
    5    23    6    29   5.0000E+01  1.0062E+00   0.0000E+00  0.0000E+00   0.0000E+00  0.0000E+00  CROSSED
    6    29    7    36   5.0000E+01  1.0820E+00   0.0000E+00  0.0000E+00   0.0000E+00  0.0000E+00  CROSSED
    7    36    8    43   5.0000E+01  1.1633E+00   0.0000E+00  0.0000E+00   0.0000E+00  0.0000E+00  CROSSED
    8    43    9    50   5.0000E+01  1.2510E+00   0.0000E+00  0.0000E+00   0.0000E+00  0.0000E+00  CROSSED
    9    50   10    57   5.0000E+01  1.3451E+00   0.0000E+00  0.0000E+00   0.0000E+00  0.0000E+00  CROSSED
   10    57   11    65   5.0000E+01  1.4463E+00   0.0000E+00  0.0000E+00   0.0000E+00  0.0000E+00  CROSSED
   11    65   12    74   5.0000E+01  1.5552E+00   0.0000E+00  0.0000E+00   2.0000E-02  0.0000E+00  CROSSED

   MAXIMUM RELATIVE ASYMMETRY OF THE DRIVING POINT ADMITTANCE
   MATRIX IS  4.198E+00 FOR SEGMENTS 36 AND 23
   RMS RELATIVE ASYMMETRY IS  1.094E+00


                          --------- STRUCTURE EXCITATION DATA AT NETWORK CONNECTION POINTS --------
  TAG   SEG       VOLTAGE (VOLTS)          CURRENT (AMPS)         IMPEDANCE (OHMS)       ADMITTANCE (MHOS)     POWER
  No:   No:     REAL      IMAGINARY     REAL      IMAGINARY     REAL      IMAGINARY     REAL      IMAGINARY   (WATTS)
   12     8  3.4361E-02 -1.2097E+00  4.4566E-03 -2.8222E-04  2.4800E+01 -2.6988E+02  3.3765E-04  3.6743E-03  2.4727E-04
   12    13 -5.7564E-02  6.4196E-01 -2.4113E-03 -9.2508E-04 -6.8227E+01 -2.4006E+02 -1.0954E-03  3.8543E-03 -2.2753E-04
   12    18  7.6820E-02 -4.0823E-01  3.9689E-03  1.3095E-04  1.5944E+01 -1.0338E+02  1.4572E-03  9.4482E-03  1.2572E-04
   12    23 -2.0357E-02 -3.3244E-01  4.3605E-03  1.7970E-03 -3.0849E+01 -6.3525E+01 -6.1857E-03  1.2738E-02 -3.4308E-04
   12    29 -5.5936E-02  5.6854E-01 -8.0863E-03  2.2572E-03  2.4624E+01 -6.3435E+01  5.3180E-03  1.3700E-02  8.6780E-04
   12    36  3.3801E-02  1.1008E-01  5.6927E-03 -1.5903E-03  4.9713E-01  1.9476E+01  1.3098E-03 -5.1312E-02  8.6838E-06
   12    43 -1.4236E-02 -8.8344E-03 -2.3570E-03  2.1835E-04  5.6441E+00  4.2710E+00  1.1266E-01 -8.5255E-02  1.5812E-05
   12    50  3.4082E-03 -1.5075E-02 -5.2623E-04  8.1936E-04 -1.4917E+01  5.4206E+00 -5.9218E-02 -2.1519E-02 -7.0725E-06
   12    57 -6.4878E-03  1.3985E-02  4.0874E-04  3.9690E-04  8.9301E+00  2.5543E+01  1.2197E-02 -3.4886E-02  1.4493E-06
   12    65  3.3725E-03  1.2496E-02  1.7605E-04 -1.0247E-04 -1.6550E+01  6.1346E+01 -4.0995E-03 -1.5195E-02 -3.4336E-07
   12    74  7.2449E-03 -1.6636E-02 -8.6229E-05 -1.5463E-04  6.2138E+01  8.1504E+01  5.9156E-03 -7.7593E-03  9.7389E-07
    1     3  0.0000E+00  1.0000E+00 -3.1780E-03 -1.4843E-04 -1.4665E+01 -3.1398E+02 -1.4843E-04  3.1780E-03 -7.4216E-05


                        --------- ANTENNA INPUT PARAMETERS ---------
  TAG   SEG       VOLTAGE (VOLTS)         CURRENT (AMPS)         IMPEDANCE (OHMS)        ADMITTANCE (MHOS)     POWER
  NO.   NO.     REAL      IMAGINARY     REAL      IMAGINARY     REAL      IMAGINARY    REAL       IMAGINARY   (WATTS)
    1     3  0.0000E+00  1.0000E+00 -1.7112E-02 -1.1787E-03 -4.0064E+00 -5.8164E+01 -1.1787E-03  1.7112E-02 -5.8934E-04


                           -------- CURRENTS AND LOCATION --------
                                  DISTANCES IN WAVELENGTHS

   SEG  TAG    COORDINATES OF SEGM CENTER     SEGM    ------------- CURRENT (AMPS) -------------
   No:  No:       X         Y         Z      LENGTH     REAL      IMAGINARY    MAGN        PHASE

     1    1    0.0000   -0.1235    0.0000   0.06176 -6.6858E-04 -4.0543E-05  6.6981E-04 -176.530
     2    1    0.0000   -0.0618    0.0000   0.06176 -2.2617E-03 -1.2220E-04  2.2650E-03 -176.907
     3    1    0.0000    0.0000    0.0000   0.06176 -3.1780E-03 -1.4843E-04  3.1814E-03 -177.326
     4    1    0.0000    0.0618    0.0000   0.06176 -2.2616E-03 -1.2221E-04  2.2649E-03 -176.907
     5    1    0.0000    0.1235    0.0000   0.06176 -6.6856E-04 -4.0546E-05  6.6978E-04 -176.529
     6    2   -0.1162   -0.1328    0.0000   0.06641  9.4358E-04 -8.4089E-05  9.4732E-04   -5.093
     7    2   -0.1162   -0.0664    0.0000   0.06641  3.1942E-03 -2.4532E-04  3.2036E-03   -4.392
     8    2   -0.1162   -0.0000    0.0000   0.06641  4.4566E-03 -2.8222E-04  4.4655E-03   -3.623
     9    2   -0.1162    0.0664    0.0000   0.06641  3.1943E-03 -2.4530E-04  3.2037E-03   -4.391
    10    2   -0.1162    0.1328    0.0000   0.06641  9.4363E-04 -8.4074E-05  9.4737E-04   -5.091
    11    3   -0.2412   -0.1428    0.0000   0.07141 -4.8911E-04 -2.3439E-04  5.4237E-04 -154.395
    12    3   -0.2412   -0.0714    0.0000   0.07141 -1.7010E-03 -7.3401E-04  1.8526E-03 -156.659
    13    3   -0.2412    0.0000    0.0000   0.07141 -2.4113E-03 -9.2508E-04  2.5826E-03 -159.011
    14    3   -0.2412    0.0714    0.0000   0.07141 -1.7009E-03 -7.3392E-04  1.8525E-03 -156.660
    15    3   -0.2412    0.1428    0.0000   0.07141 -4.8901E-04 -2.3434E-04  5.4226E-04 -154.396
    16    4   -0.3756   -0.1536    0.0000   0.07678  9.4972E-04  1.6514E-05  9.4986E-04    0.996
    17    4   -0.3756   -0.0768    0.0000   0.07678  3.0600E-03  7.3514E-05  3.0609E-03    1.376
    18    4   -0.3756    0.0000    0.0000   0.07678  3.9689E-03  1.3095E-04  3.9711E-03    1.890
    19    4   -0.3756    0.0768    0.0000   0.07678  3.0606E-03  7.3690E-05  3.0615E-03    1.379
    20    4   -0.3756    0.1536    0.0000   0.07678  9.5004E-04  1.6616E-05  9.5018E-04    1.002
    21    5   -0.5200   -0.1651    0.0000   0.08256  1.0406E-03  4.7900E-04  1.1455E-03   24.718
    22    5   -0.5200   -0.0826    0.0000   0.08256  3.3800E-03  1.4770E-03  3.6886E-03   23.605
    23    5   -0.5200   -0.0000    0.0000   0.08256  4.3605E-03  1.7970E-03  4.7162E-03   22.397
    24    5   -0.5200    0.0826    0.0000   0.08256  3.3841E-03  1.4772E-03  3.6924E-03   23.582
    25    5   -0.5200    0.1651    0.0000   0.08256  1.0433E-03  4.7914E-04  1.1481E-03   24.667
    26    6   -0.6754   -0.1902    0.0000   0.06341 -1.5031E-03  4.6151E-04  1.5724E-03  162.932
    27    6   -0.6754   -0.1268    0.0000   0.06341 -4.9724E-03  1.4935E-03  5.1918E-03  163.282
    28    6   -0.6754   -0.0634    0.0000   0.06341 -7.1910E-03  2.0808E-03  7.4860E-03  163.862
    29    6   -0.6754    0.0000    0.0000   0.06341 -8.0863E-03  2.2572E-03  8.3954E-03  164.404
    30    6   -0.6754    0.0634    0.0000   0.06341 -7.0213E-03  2.0961E-03  7.3275E-03  163.378
    31    6   -0.6754    0.1268    0.0000   0.06341 -5.3431E-03  1.4534E-03  5.5372E-03  164.782
    32    6   -0.6754    0.1902    0.0000   0.06341 -1.6430E-03  4.4634E-04  1.7025E-03  164.802
    33    7   -0.8425   -0.2046    0.0000   0.06818  1.1437E-03 -2.8223E-04  1.1780E-03  -13.861
    34    7   -0.8425   -0.1364    0.0000   0.06818  3.7529E-03 -9.5147E-04  3.8717E-03  -14.226
    35    7   -0.8425   -0.0682    0.0000   0.06818  5.2670E-03 -1.4015E-03  5.4503E-03  -14.901
    36    7   -0.8425   -0.0000    0.0000   0.06818  5.6927E-03 -1.5903E-03  5.9106E-03  -15.608
    37    7   -0.8425    0.0682    0.0000   0.06818  5.3018E-03 -1.2833E-03  5.4549E-03  -13.606
    38    7   -0.8425    0.1364    0.0000   0.06818  3.8458E-03 -7.3964E-04  3.9162E-03  -10.887
    39    7   -0.8425    0.2046    0.0000   0.06818  1.2398E-03 -9.4847E-05  1.2434E-03   -4.375
    40    8   -1.0221   -0.2199    0.0000   0.07331 -4.1729E-04  2.5468E-05  4.1807E-04  176.507
    41    8   -1.0221   -0.1466    0.0000   0.07331 -1.4160E-03  9.7971E-05  1.4194E-03  176.042
    42    8   -1.0221   -0.0733    0.0000   0.07331 -2.0847E-03  1.7091E-04  2.0917E-03  175.313
    43    8   -1.0221   -0.0000    0.0000   0.07331 -2.3570E-03  2.1835E-04  2.3671E-03  174.707
    44    8   -1.0221    0.0733    0.0000   0.07331 -1.9676E-03  9.8938E-05  1.9701E-03  177.121
    45    8   -1.0221    0.1466    0.0000   0.07331 -1.2021E-03 -3.5018E-05  1.2026E-03 -178.331
    46    8   -1.0221    0.2199    0.0000   0.07331 -2.2979E-04 -9.1493E-05  2.4733E-04 -158.289
    47    9   -1.2152   -0.2365    0.0000   0.07883 -1.0792E-04  1.4520E-04  1.8091E-04  126.621
    48    9   -1.2152   -0.1577    0.0000   0.07883 -3.5201E-04  4.9402E-04  6.0661E-04  125.472
    49    9   -1.2152   -0.0788    0.0000   0.07883 -4.8824E-04  7.2919E-04  8.7755E-04  123.805
    50    9   -1.2152    0.0000    0.0000   0.07883 -5.2623E-04  8.1936E-04  9.7379E-04  122.711
    51    9   -1.2152    0.0788    0.0000   0.07883 -4.9613E-04  5.9030E-04  7.7110E-04  130.046
    52    9   -1.2152    0.1577    0.0000   0.07883 -3.5631E-04  2.5364E-04  4.3737E-04  144.555
    53    9   -1.2152    0.2365    0.0000   0.07883 -1.0960E-04  6.5068E-05  1.2746E-04  149.302
    54   10   -1.4229   -0.2543    0.0000   0.08477  1.1198E-04  8.8864E-05  1.4296E-04   38.434
    55   10   -1.4229   -0.1695    0.0000   0.08477  3.8149E-04  2.9774E-04  4.8393E-04   37.971
    56   10   -1.4229   -0.0848    0.0000   0.08477  5.3020E-04  4.1784E-04  6.7505E-04   38.241
    57   10   -1.4229    0.0000    0.0000   0.08477  4.0874E-04  3.9690E-04  5.6974E-04   44.158
    58   10   -1.4229    0.0848    0.0000   0.08477  2.1508E-04  3.0624E-04  3.7422E-04   54.919
    59   10   -1.4229    0.1695    0.0000   0.08477  1.8549E-05  1.6299E-04  1.6404E-04   83.507
    60   10   -1.4229    0.2543    0.0000   0.08477 -5.5209E-06  4.5659E-05  4.5992E-05   96.894
    61   11   -1.6462   -0.2836    0.0000   0.07089  3.7966E-05 -2.1892E-05  4.3826E-05  -29.969
    62   11   -1.6462   -0.2127    0.0000   0.07089  1.2796E-04 -7.5779E-05  1.4872E-04  -30.633
    63   11   -1.6462   -0.1418    0.0000   0.07089  1.9181E-04 -1.1676E-04  2.2455E-04  -31.330
    64   11   -1.6462   -0.0709    0.0000   0.07089  2.2323E-04 -1.3792E-04  2.6240E-04  -31.710
    65   11   -1.6462    0.0000    0.0000   0.07089  1.7605E-04 -1.0247E-04  2.0370E-04  -30.202
    66   11   -1.6462    0.0709    0.0000   0.07089  1.2295E-04 -5.6226E-05  1.3520E-04  -24.574
    67   11   -1.6462    0.1418    0.0000   0.07089  6.0139E-05 -8.8037E-06  6.0780E-05   -8.328
    68   11   -1.6462    0.2127    0.0000   0.07089 -4.9402E-07  2.6602E-05  2.6607E-05   91.064
    69   11   -1.6462    0.2836    0.0000   0.07089 -3.0946E-06  1.1110E-05  1.1533E-05  105.565
    70   12   -1.8864   -0.3049    0.0000   0.07623 -3.5216E-05 -3.5942E-05  5.0319E-05 -134.415
    71   12   -1.8864   -0.2287    0.0000   0.07623 -1.1559E-04 -1.2148E-04  1.6769E-04 -133.577
    72   12   -1.8864   -0.1525    0.0000   0.07623 -1.6283E-04 -1.8035E-04  2.4298E-04 -132.077
    73   12   -1.8864   -0.0762    0.0000   0.07623 -1.6849E-04 -2.0521E-04  2.6552E-04 -129.389
    74   12   -1.8864   -0.0000    0.0000   0.07623 -8.6229E-05 -1.5463E-04  1.7705E-04 -119.146
    75   12   -1.8864    0.0762    0.0000   0.07623 -1.0682E-05 -9.0045E-05  9.0677E-05  -96.765
    76   12   -1.8864    0.1525    0.0000   0.07623  5.3054E-05 -2.3713E-05  5.8112E-05  -24.083
    77   12   -1.8864    0.2287    0.0000   0.07623  4.9158E-05 -5.1096E-06  4.9423E-05   -5.934
    78   12   -1.8864    0.3049    0.0000   0.07623  1.6768E-05  1.6315E-07  1.6768E-05    0.557


                               ---------- POWER BUDGET ---------
                               INPUT POWER   = -5.8934E-04 Watts
                               RADIATED POWER=  6.1546E-04 Watts
                               STRUCTURE LOSS=  0.0000E+00 Watts
                               NETWORK LOSS  = -1.2048E-03 Watts
                               EFFICIENCY    = -104.43 Percent


                             ---------- RADIATION PATTERNS -----------

 ---- ANGLES -----     --- DIRECTIVE GAINS ---      ---- POLARIZATION ----   ---- E(THETA) ----    ----- E(PHI) ------
  THETA      PHI       VERTC    HORIZ    TOTAL       AXIAL      TILT  SENSE   MAGNITUDE    PHASE    MAGNITUDE     PHASE
 DEGREES   DEGREES        DB       DB       DB       RATIO   DEGREES            VOLTS/M   DEGREES     VOLTS/M   DEGREES
   90.00      0.00   -999.99     6.47     6.47      0.0000    -90.00 LINEAR  0.0000E+00      0.00  4.0482E-01    160.04
   85.00      0.00   -999.99     6.44     6.44      0.0000    -90.00 LINEAR  0.0000E+00      0.00  4.0342E-01    160.46
   80.00      0.00   -999.99     6.35     6.35      0.0000    -90.00 LINEAR  0.0000E+00      0.00  3.9923E-01    161.73
   75.00      0.00   -999.99     6.20     6.20      0.0000    -90.00 LINEAR  0.0000E+00      0.00  3.9236E-01    163.80
   70.00      0.00   -999.99     5.99     5.99      0.0000    -90.00 LINEAR  0.0000E+00      0.00  3.8302E-01    166.60
   65.00      0.00   -999.99     5.73     5.73      0.0000    -90.00 LINEAR  0.0000E+00      0.00  3.7168E-01    170.03
   60.00      0.00   -999.99     5.43     5.43      0.0000    -90.00 LINEAR  0.0000E+00      0.00  3.5914E-01    174.00
   55.00      0.00   -999.99     5.13     5.13      0.0000    -90.00 LINEAR  0.0000E+00      0.00  3.4673E-01    178.44
   50.00      0.00   -999.99     4.86     4.86      0.0000    -90.00 LINEAR  0.0000E+00      0.00  3.3611E-01   -176.58
   45.00      0.00   -999.99     4.67     4.67      0.0000    -90.00 LINEAR  0.0000E+00      0.00  3.2870E-01   -170.75
   40.00      0.00   -999.99     4.56     4.56      0.0000    -90.00 LINEAR  0.0000E+00      0.00  3.2466E-01   -163.53
   35.00      0.00   -999.99     4.49     4.49      0.0000    -90.00 LINEAR  0.0000E+00      0.00  3.2216E-01   -154.30
   30.00      0.00   -999.99     4.37     4.37      0.0000    -90.00 LINEAR  0.0000E+00      0.00  3.1780E-01   -142.72
   25.00      0.00   -999.99     4.10     4.10      0.0000    -90.00 LINEAR  0.0000E+00      0.00  3.0802E-01   -128.78
   20.00      0.00   -999.99     3.60     3.60      0.0000    -90.00 LINEAR  0.0000E+00      0.00  2.9085E-01   -112.83
   15.00      0.00   -999.99     2.85     2.85      0.0000    -90.00 LINEAR  0.0000E+00      0.00  2.6670E-01    -95.36
   10.00      0.00   -999.99     1.86     1.86      0.0000     90.00 LINEAR  0.0000E+00      0.00  2.3803E-01    -76.92
    5.00      0.00   -999.99     0.69     0.69      0.0000     90.00 LINEAR  0.0000E+00      0.00  2.0795E-01    -57.90
    0.00      0.00   -999.99    -0.64    -0.64      0.0000     90.00 LINEAR  0.0000E+00      0.00  1.7854E-01    -38.52
   -5.00      0.00   -999.99    -2.16    -2.16      0.0000     90.00 LINEAR  0.0000E+00      0.00  1.4985E-01    -18.96
  -10.00      0.00   -999.99    -4.07    -4.07      0.0000     90.00 LINEAR  0.0000E+00      0.00  1.2021E-01      0.26
  -15.00      0.00   -999.99    -6.79    -6.79      0.0000     90.00 LINEAR  0.0000E+00      0.00  8.7867E-02     17.23
  -20.00      0.00   -999.99   -11.04   -11.04      0.0000     90.00 LINEAR  0.0000E+00      0.00  5.3902E-02     24.85
  -25.00      0.00   -999.99   -15.17   -15.17      0.0000     90.00 LINEAR  0.0000E+00      0.00  3.3503E-02     -4.27
  -30.00      0.00   -999.99   -10.74   -10.74      0.0000     90.00 LINEAR  0.0000E+00      0.00  5.5799E-02    -32.92
  -35.00      0.00   -999.99    -6.41    -6.41      0.0000     90.00 LINEAR  0.0000E+00      0.00  9.1804E-02    -25.85
  -40.00      0.00   -999.99    -3.82    -3.82      0.0000     90.00 LINEAR  0.0000E+00      0.00  1.2380E-01     -9.98
  -45.00      0.00   -999.99    -2.34    -2.34      0.0000     90.00 LINEAR  0.0000E+00      0.00  1.4676E-01      7.92
  -50.00      0.00   -999.99    -1.64    -1.64      0.0000     90.00 LINEAR  0.0000E+00      0.00  1.5910E-01     25.97
  -55.00      0.00   -999.99    -1.51    -1.51      0.0000     90.00 LINEAR  0.0000E+00      0.00  1.6147E-01     43.48
  -60.00      0.00   -999.99    -1.81    -1.81      0.0000     90.00 LINEAR  0.0000E+00      0.00  1.5604E-01     60.13
  -65.00      0.00   -999.99    -2.40    -2.40      0.0000     90.00 LINEAR  0.0000E+00      0.00  1.4580E-01     75.75
  -70.00      0.00   -999.99    -3.14    -3.14      0.0000    -90.00 LINEAR  0.0000E+00      0.00  1.3384E-01     90.09
  -75.00      0.00   -999.99    -3.89    -3.89      0.0000    -90.00 LINEAR  0.0000E+00      0.00  1.2272E-01    102.69
  -80.00      0.00   -999.99    -4.52    -4.52      0.0000    -90.00 LINEAR  0.0000E+00      0.00  1.1416E-01    112.79
  -85.00      0.00   -999.99    -4.93    -4.93      0.0000    -90.00 LINEAR  0.0000E+00      0.00  1.0894E-01    119.41
  -90.00      0.00   -999.99    -5.07    -5.07      0.0000    -90.00 LINEAR  0.0000E+00      0.00  1.0721E-01    121.73


                              ---------- NORMALIZED GAIN ----------
                                        MAJOR AXIS GAIN
                                   NORMALIZATION FACTOR: 6.47 db

    ---- ANGLES ----                ---- ANGLES ----                ---- ANGLES ----
    THETA      PHI        GAIN      THETA      PHI        GAIN      THETA      PHI       GAIN
   DEGREES   DEGREES        DB     DEGREES   DEGREES        DB     DEGREES   DEGREES       DB
     90.00      0.00      0.00       25.00      0.00     -2.37      -35.00      0.00    -12.89
     85.00      0.00     -0.03       20.00      0.00     -2.87      -40.00      0.00    -10.29
     80.00      0.00     -0.12       15.00      0.00     -3.62      -45.00      0.00     -8.81
     75.00      0.00     -0.27       10.00      0.00     -4.61      -50.00      0.00     -8.11
     70.00      0.00     -0.48        5.00      0.00     -5.79      -55.00      0.00     -7.98
     65.00      0.00     -0.74        0.00      0.00     -7.11      -60.00      0.00     -8.28
     60.00      0.00     -1.04       -5.00      0.00     -8.63      -65.00      0.00     -8.87
     55.00      0.00     -1.35      -10.00      0.00    -10.55      -70.00      0.00     -9.61
     50.00      0.00     -1.62      -15.00      0.00    -13.27      -75.00      0.00    -10.37
     45.00      0.00     -1.81      -20.00      0.00    -17.51      -80.00      0.00    -11.00
     40.00      0.00     -1.92      -25.00      0.00    -21.64      -85.00      0.00    -11.40
     35.00      0.00     -1.98      -30.00      0.00    -17.21      -90.00      0.00    -11.54
     30.00      0.00     -2.10   



*****  DATA CARD N0.  15 EN   0     0     0     0  0.00000E+00  0.00000E+00  0.00000E+00  0.00000E+00  0.00000E+00  0.00000E+00

  TOTAL RUN TIME: 240 msec