


                                __________________________________________
                               |                                          |
                               | NUMERICAL ELECTROMAGNETICS CODE (nec2++) |
                               | Translated to 'C++' in Double Precision  |
                               |              Version 1.0.4 [2004-11-23]              |
                               |__________________________________________|



                               ---------------- COMMENTS ----------------
                                GA - NEC FILE
                                go blue ! 



                                -------- STRUCTURE SPECIFICATION --------
                                COORDINATES MUST BE INPUT IN
                                METERS OR BE SCALED TO METERS
                                BEFORE STRUCTURE INPUT IS ENDED
  WIRE                                                                                 SEG FIRST  LAST  TAG
   No:        X1         Y1         Z1         X2         Y2         Z2       RADIUS   No:   SEG   SEG  No:

     1      0.0000     0.0000     0.0000    -0.0420     0.0080     0.0170     0.0010    36     1    36    0
     2     -0.0420     0.0080     0.0170    -0.0480     0.0210    -0.0050     0.0010    21    37    57    0
     3     -0.0480     0.0210    -0.0050     0.0390     0.0320    -0.0170     0.0010    70    58   127    0
     4     -0.0480     0.0210    -0.0050     0.0350     0.0430     0.0140     0.0010    70   128   197    0
     5     -0.0420     0.0080     0.0170     0.0170    -0.0150     0.0140     0.0010    50   198   247    0
     6      0.0170    -0.0150     0.0140    -0.0270     0.0400    -0.0310     0.0010    66   248   313    0
     7     -0.0270     0.0400    -0.0310     0.0460    -0.0100     0.0280     0.0010    85   314   398    0
     8      0.0460    -0.0100     0.0280    -0.0130    -0.0050     0.0310     0.0010    47   399   445    0
     9      0.0170    -0.0150     0.0140    -0.0480    -0.0380    -0.0400     0.0010    70   446   515    0
    10     -0.0480    -0.0380    -0.0400     0.0490    -0.0450    -0.0400     0.0010    77   516   592    0

     TOTAL SEGMENTS USED: 592   SEGMENTS IN A SYMMETRIC CELL: 592   SYMMETRY FLAG: 0

    ---------- MULTIPLE WIRE JUNCTIONS ----------
    JUNCTION  SEGMENTS (- FOR END 1, + FOR END 2)
       1         36  -37 -198
       2         57  -58 -128
       3        247 -248 -446


                               ---------- SEGMENTATION DATA ----------
                                        COORDINATES IN METERS
                            I+ AND I- INDICATE THE SEGMENTS BEFORE AND AFTER I

   SEG    COORDINATES OF SEGM CENTER     SEGM    ORIENTATION ANGLES    WIRE    CONNECTION DATA   TAG
   No:       X         Y         Z      LENGTH     ALPHA      BETA    RADIUS    I-     I    I+   NO:
     1   -0.0006    0.0001    0.0002    0.0013   21.6834  169.2157    0.0010     0     1     2     0
     2   -0.0018    0.0003    0.0007    0.0013   21.6834  169.2157    0.0010     1     2     3     0
     3   -0.0029    0.0006    0.0012    0.0013   21.6834  169.2157    0.0010     2     3     4     0
     4   -0.0041    0.0008    0.0017    0.0013   21.6834  169.2157    0.0010     3     4     5     0
     5   -0.0053    0.0010    0.0021    0.0013   21.6834  169.2157    0.0010     4     5     6     0
     6   -0.0064    0.0012    0.0026    0.0013   21.6834  169.2157    0.0010     5     6     7     0
     7   -0.0076    0.0014    0.0031    0.0013   21.6834  169.2157    0.0010     6     7     8     0
     8   -0.0088    0.0017    0.0035    0.0013   21.6834  169.2157    0.0010     7     8     9     0
     9   -0.0099    0.0019    0.0040    0.0013   21.6834  169.2157    0.0010     8     9    10     0
    10   -0.0111    0.0021    0.0045    0.0013   21.6834  169.2157    0.0010     9    10    11     0
    11   -0.0123    0.0023    0.0050    0.0013   21.6834  169.2157    0.0010    10    11    12     0
    12   -0.0134    0.0026    0.0054    0.0013   21.6834  169.2157    0.0010    11    12    13     0
    13   -0.0146    0.0028    0.0059    0.0013   21.6834  169.2157    0.0010    12    13    14     0
    14   -0.0158    0.0030    0.0064    0.0013   21.6834  169.2157    0.0010    13    14    15     0
    15   -0.0169    0.0032    0.0068    0.0013   21.6834  169.2157    0.0010    14    15    16     0
    16   -0.0181    0.0034    0.0073    0.0013   21.6834  169.2157    0.0010    15    16    17     0
    17   -0.0193    0.0037    0.0078    0.0013   21.6834  169.2157    0.0010    16    17    18     0
    18   -0.0204    0.0039    0.0083    0.0013   21.6834  169.2157    0.0010    17    18    19     0
    19   -0.0216    0.0041    0.0087    0.0013   21.6834  169.2157    0.0010    18    19    20     0
    20   -0.0227    0.0043    0.0092    0.0013   21.6834  169.2157    0.0010    19    20    21     0
    21   -0.0239    0.0046    0.0097    0.0013   21.6834  169.2157    0.0010    20    21    22     0
    22   -0.0251    0.0048    0.0102    0.0013   21.6834  169.2157    0.0010    21    22    23     0
    23   -0.0263    0.0050    0.0106    0.0013   21.6834  169.2157    0.0010    22    23    24     0
    24   -0.0274    0.0052    0.0111    0.0013   21.6834  169.2157    0.0010    23    24    25     0
    25   -0.0286    0.0054    0.0116    0.0013   21.6834  169.2157    0.0010    24    25    26     0
    26   -0.0298    0.0057    0.0120    0.0013   21.6834  169.2157    0.0010    25    26    27     0
    27   -0.0309    0.0059    0.0125    0.0013   21.6834  169.2157    0.0010    26    27    28     0
    28   -0.0321    0.0061    0.0130    0.0013   21.6834  169.2157    0.0010    27    28    29     0
    29   -0.0333    0.0063    0.0135    0.0013   21.6834  169.2157    0.0010    28    29    30     0
    30   -0.0344    0.0066    0.0139    0.0013   21.6834  169.2157    0.0010    29    30    31     0
    31   -0.0356    0.0068    0.0144    0.0013   21.6834  169.2157    0.0010    30    31    32     0
    32   -0.0368    0.0070    0.0149    0.0013   21.6834  169.2157    0.0010    31    32    33     0
    33   -0.0379    0.0072    0.0153    0.0013   21.6834  169.2157    0.0010    32    33    34     0
    34   -0.0391    0.0074    0.0158    0.0013   21.6834  169.2157    0.0010    33    34    35     0
    35   -0.0403    0.0077    0.0163    0.0013   21.6834  169.2157    0.0010    34    35    36     0
    36   -0.0414    0.0079    0.0168    0.0013   21.6834  169.2157    0.0010    35    36    37     0
    37   -0.0421    0.0083    0.0165    0.0012  -56.9435  114.7751    0.0010  -198    37    38     0
    38   -0.0424    0.0089    0.0154    0.0012  -56.9435  114.7751    0.0010    37    38    39     0
    39   -0.0427    0.0095    0.0144    0.0012  -56.9435  114.7751    0.0010    38    39    40     0
    40   -0.0430    0.0102    0.0133    0.0012  -56.9435  114.7751    0.0010    39    40    41     0
    41   -0.0433    0.0108    0.0123    0.0012  -56.9435  114.7751    0.0010    40    41    42     0
    42   -0.0436    0.0114    0.0112    0.0012  -56.9435  114.7751    0.0010    41    42    43     0
    43   -0.0439    0.0120    0.0102    0.0012  -56.9435  114.7751    0.0010    42    43    44     0
    44   -0.0441    0.0126    0.0091    0.0012  -56.9435  114.7751    0.0010    43    44    45     0
    45   -0.0444    0.0133    0.0081    0.0012  -56.9435  114.7751    0.0010    44    45    46     0
    46   -0.0447    0.0139    0.0070    0.0012  -56.9435  114.7751    0.0010    45    46    47     0
    47   -0.0450    0.0145    0.0060    0.0012  -56.9435  114.7751    0.0010    46    47    48     0
    48   -0.0453    0.0151    0.0050    0.0012  -56.9435  114.7751    0.0010    47    48    49     0
    49   -0.0456    0.0157    0.0039    0.0012  -56.9435  114.7751    0.0010    48    49    50     0
    50   -0.0459    0.0164    0.0029    0.0012  -56.9435  114.7751    0.0010    49    50    51     0
    51   -0.0461    0.0170    0.0018    0.0012  -56.9435  114.7751    0.0010    50    51    52     0
    52   -0.0464    0.0176    0.0008    0.0012  -56.9435  114.7751    0.0010    51    52    53     0
    53   -0.0467    0.0182   -0.0003    0.0012  -56.9435  114.7751    0.0010    52    53    54     0
    54   -0.0470    0.0188   -0.0013    0.0012  -56.9435  114.7751    0.0010    53    54    55     0
    55   -0.0473    0.0195   -0.0024    0.0012  -56.9435  114.7751    0.0010    54    55    56     0
    56   -0.0476    0.0201   -0.0034    0.0012  -56.9435  114.7751    0.0010    55    56    57     0
    57   -0.0479    0.0207   -0.0045    0.0012  -56.9435  114.7751    0.0010    56    57    58     0
    58   -0.0474    0.0211   -0.0051    0.0013   -7.7920    7.2061    0.0010  -128    58    59     0
    59   -0.0461    0.0212   -0.0053    0.0013   -7.7920    7.2061    0.0010    58    59    60     0
    60   -0.0449    0.0214   -0.0054    0.0013   -7.7920    7.2061    0.0010    59    60    61     0
    61   -0.0437    0.0215   -0.0056    0.0013   -7.7920    7.2061    0.0010    60    61    62     0
    62   -0.0424    0.0217   -0.0058    0.0013   -7.7920    7.2061    0.0010    61    62    63     0
    63   -0.0412    0.0219   -0.0059    0.0013   -7.7920    7.2061    0.0010    62    63    64     0
    64   -0.0399    0.0220   -0.0061    0.0013   -7.7920    7.2061    0.0010    63    64    65     0
    65   -0.0387    0.0222   -0.0063    0.0013   -7.7920    7.2061    0.0010    64    65    66     0
    66   -0.0374    0.0223   -0.0065    0.0013   -7.7920    7.2061    0.0010    65    66    67     0
    67   -0.0362    0.0225   -0.0066    0.0013   -7.7920    7.2061    0.0010    66    67    68     0
    68   -0.0350    0.0227   -0.0068    0.0013   -7.7920    7.2061    0.0010    67    68    69     0
    69   -0.0337    0.0228   -0.0070    0.0013   -7.7920    7.2061    0.0010    68    69    70     0
    70   -0.0325    0.0230   -0.0071    0.0013   -7.7920    7.2061    0.0010    69    70    71     0
    71   -0.0312    0.0231   -0.0073    0.0013   -7.7920    7.2061    0.0010    70    71    72     0
    72   -0.0300    0.0233   -0.0075    0.0013   -7.7920    7.2061    0.0010    71    72    73     0
    73   -0.0287    0.0234   -0.0077    0.0013   -7.7920    7.2061    0.0010    72    73    74     0
    74   -0.0275    0.0236   -0.0078    0.0013   -7.7920    7.2061    0.0010    73    74    75     0
    75   -0.0263    0.0238   -0.0080    0.0013   -7.7920    7.2061    0.0010    74    75    76     0
    76   -0.0250    0.0239   -0.0082    0.0013   -7.7920    7.2061    0.0010    75    76    77     0
    77   -0.0238    0.0241   -0.0083    0.0013   -7.7920    7.2061    0.0010    76    77    78     0
    78   -0.0225    0.0242   -0.0085    0.0013   -7.7920    7.2061    0.0010    77    78    79     0
    79   -0.0213    0.0244   -0.0087    0.0013   -7.7920    7.2061    0.0010    78    79    80     0
    80   -0.0200    0.0245   -0.0089    0.0013   -7.7920    7.2061    0.0010    79    80    81     0
    81   -0.0188    0.0247   -0.0090    0.0013   -7.7920    7.2061    0.0010    80    81    82     0
    82   -0.0176    0.0249   -0.0092    0.0013   -7.7920    7.2061    0.0010    81    82    83     0
    83   -0.0163    0.0250   -0.0094    0.0013   -7.7920    7.2061    0.0010    82    83    84     0
    84   -0.0151    0.0252   -0.0095    0.0013   -7.7920    7.2061    0.0010    83    84    85     0
    85   -0.0138    0.0253   -0.0097    0.0013   -7.7920    7.2061    0.0010    84    85    86     0
    86   -0.0126    0.0255   -0.0099    0.0013   -7.7920    7.2061    0.0010    85    86    87     0
    87   -0.0113    0.0256   -0.0101    0.0013   -7.7920    7.2061    0.0010    86    87    88     0
    88   -0.0101    0.0258   -0.0102    0.0013   -7.7920    7.2061    0.0010    87    88    89     0
    89   -0.0089    0.0260   -0.0104    0.0013   -7.7920    7.2061    0.0010    88    89    90     0
    90   -0.0076    0.0261   -0.0106    0.0013   -7.7920    7.2061    0.0010    89    90    91     0
    91   -0.0064    0.0263   -0.0107    0.0013   -7.7920    7.2061    0.0010    90    91    92     0
    92   -0.0051    0.0264   -0.0109    0.0013   -7.7920    7.2061    0.0010    91    92    93     0
    93   -0.0039    0.0266   -0.0111    0.0013   -7.7920    7.2061    0.0010    92    93    94     0
    94   -0.0026    0.0267   -0.0113    0.0013   -7.7920    7.2061    0.0010    93    94    95     0
    95   -0.0014    0.0269   -0.0114    0.0013   -7.7920    7.2061    0.0010    94    95    96     0
    96   -0.0002    0.0271   -0.0116    0.0013   -7.7920    7.2061    0.0010    95    96    97     0
    97    0.0011    0.0272   -0.0118    0.0013   -7.7920    7.2061    0.0010    96    97    98     0
    98    0.0023    0.0274   -0.0119    0.0013   -7.7920    7.2061    0.0010    97    98    99     0
    99    0.0036    0.0275   -0.0121    0.0013   -7.7920    7.2061    0.0010    98    99   100     0
   100    0.0048    0.0277   -0.0123    0.0013   -7.7920    7.2061    0.0010    99   100   101     0
   101    0.0061    0.0278   -0.0125    0.0013   -7.7920    7.2061    0.0010   100   101   102     0
   102    0.0073    0.0280   -0.0126    0.0013   -7.7920    7.2061    0.0010   101   102   103     0
   103    0.0085    0.0282   -0.0128    0.0013   -7.7920    7.2061    0.0010   102   103   104     0
   104    0.0098    0.0283   -0.0130    0.0013   -7.7920    7.2061    0.0010   103   104   105     0
   105    0.0110    0.0285   -0.0131    0.0013   -7.7920    7.2061    0.0010   104   105   106     0
   106    0.0123    0.0286   -0.0133    0.0013   -7.7920    7.2061    0.0010   105   106   107     0
   107    0.0135    0.0288   -0.0135    0.0013   -7.7920    7.2061    0.0010   106   107   108     0
   108    0.0148    0.0289   -0.0137    0.0013   -7.7920    7.2061    0.0010   107   108   109     0
   109    0.0160    0.0291   -0.0138    0.0013   -7.7920    7.2061    0.0010   108   109   110     0
   110    0.0172    0.0293   -0.0140    0.0013   -7.7920    7.2061    0.0010   109   110   111     0
   111    0.0185    0.0294   -0.0142    0.0013   -7.7920    7.2061    0.0010   110   111   112     0
   112    0.0197    0.0296   -0.0143    0.0013   -7.7920    7.2061    0.0010   111   112   113     0
   113    0.0210    0.0297   -0.0145    0.0013   -7.7920    7.2061    0.0010   112   113   114     0
   114    0.0222    0.0299   -0.0147    0.0013   -7.7920    7.2061    0.0010   113   114   115     0
   115    0.0235    0.0300   -0.0149    0.0013   -7.7920    7.2061    0.0010   114   115   116     0
   116    0.0247    0.0302   -0.0150    0.0013   -7.7920    7.2061    0.0010   115   116   117     0
   117    0.0259    0.0304   -0.0152    0.0013   -7.7920    7.2061    0.0010   116   117   118     0
   118    0.0272    0.0305   -0.0154    0.0013   -7.7920    7.2061    0.0010   117   118   119     0
   119    0.0284    0.0307   -0.0155    0.0013   -7.7920    7.2061    0.0010   118   119   120     0
   120    0.0297    0.0308   -0.0157    0.0013   -7.7920    7.2061    0.0010   119   120   121     0
   121    0.0309    0.0310   -0.0159    0.0013   -7.7920    7.2061    0.0010   120   121   122     0
   122    0.0322    0.0311   -0.0161    0.0013   -7.7920    7.2061    0.0010   121   122   123     0
   123    0.0334    0.0313   -0.0162    0.0013   -7.7920    7.2061    0.0010   122   123   124     0
   124    0.0346    0.0314   -0.0164    0.0013   -7.7920    7.2061    0.0010   123   124   125     0
   125    0.0359    0.0316   -0.0166    0.0013   -7.7920    7.2061    0.0010   124   125   126     0
   126    0.0371    0.0318   -0.0167    0.0013   -7.7920    7.2061    0.0010   125   126   127     0
   127    0.0384    0.0319   -0.0169    0.0013   -7.7920    7.2061    0.0010   126   127     0     0
   128   -0.0474    0.0212   -0.0049    0.0013   12.4771   14.8455    0.0010    57   128   129     0
   129   -0.0462    0.0215   -0.0046    0.0013   12.4771   14.8455    0.0010   128   129   130     0
   130   -0.0450    0.0218   -0.0043    0.0013   12.4771   14.8455    0.0010   129   130   131     0
   131   -0.0439    0.0221   -0.0040    0.0013   12.4771   14.8455    0.0010   130   131   132     0
   132   -0.0427    0.0224   -0.0038    0.0013   12.4771   14.8455    0.0010   131   132   133     0
   133   -0.0415    0.0227   -0.0035    0.0013   12.4771   14.8455    0.0010   132   133   134     0
   134   -0.0403    0.0230   -0.0032    0.0013   12.4771   14.8455    0.0010   133   134   135     0
   135   -0.0391    0.0234   -0.0030    0.0013   12.4771   14.8455    0.0010   134   135   136     0
   136   -0.0379    0.0237   -0.0027    0.0013   12.4771   14.8455    0.0010   135   136   137     0
   137   -0.0367    0.0240   -0.0024    0.0013   12.4771   14.8455    0.0010   136   137   138     0
   138   -0.0355    0.0243   -0.0022    0.0013   12.4771   14.8455    0.0010   137   138   139     0
   139   -0.0344    0.0246   -0.0019    0.0013   12.4771   14.8455    0.0010   138   139   140     0
   140   -0.0332    0.0249   -0.0016    0.0013   12.4771   14.8455    0.0010   139   140   141     0
   141   -0.0320    0.0252   -0.0013    0.0013   12.4771   14.8455    0.0010   140   141   142     0
   142   -0.0308    0.0256   -0.0011    0.0013   12.4771   14.8455    0.0010   141   142   143     0
   143   -0.0296    0.0259   -0.0008    0.0013   12.4771   14.8455    0.0010   142   143   144     0
   144   -0.0284    0.0262   -0.0005    0.0013   12.4771   14.8455    0.0010   143   144   145     0
   145   -0.0272    0.0265   -0.0002    0.0013   12.4771   14.8455    0.0010   144   145   146     0
   146   -0.0261    0.0268    0.0000    0.0013   12.4771   14.8455    0.0010   145   146   147     0
   147   -0.0249    0.0271    0.0003    0.0013   12.4771   14.8455    0.0010   146   147   148     0
   148   -0.0237    0.0274    0.0006    0.0013   12.4771   14.8455    0.0010   147   148   149     0
   149   -0.0225    0.0278    0.0008    0.0013   12.4771   14.8455    0.0010   148   149   150     0
   150   -0.0213    0.0281    0.0011    0.0013   12.4771   14.8455    0.0010   149   150   151     0
   151   -0.0201    0.0284    0.0014    0.0013   12.4771   14.8455    0.0010   150   151   152     0
   152   -0.0189    0.0287    0.0017    0.0013   12.4771   14.8455    0.0010   151   152   153     0
   153   -0.0178    0.0290    0.0019    0.0013   12.4771   14.8455    0.0010   152   153   154     0
   154   -0.0166    0.0293    0.0022    0.0013   12.4771   14.8455    0.0010   153   154   155     0
   155   -0.0154    0.0296    0.0025    0.0013   12.4771   14.8455    0.0010   154   155   156     0
   156   -0.0142    0.0300    0.0027    0.0013   12.4771   14.8455    0.0010   155   156   157     0
   157   -0.0130    0.0303    0.0030    0.0013   12.4771   14.8455    0.0010   156   157   158     0
   158   -0.0118    0.0306    0.0033    0.0013   12.4771   14.8455    0.0010   157   158   159     0
   159   -0.0106    0.0309    0.0036    0.0013   12.4771   14.8455    0.0010   158   159   160     0
   160   -0.0095    0.0312    0.0038    0.0013   12.4771   14.8455    0.0010   159   160   161     0
   161   -0.0083    0.0315    0.0041    0.0013   12.4771   14.8455    0.0010   160   161   162     0
   162   -0.0071    0.0318    0.0044    0.0013   12.4771   14.8455    0.0010   161   162   163     0
   163   -0.0059    0.0322    0.0046    0.0013   12.4771   14.8455    0.0010   162   163   164     0
   164   -0.0047    0.0325    0.0049    0.0013   12.4771   14.8455    0.0010   163   164   165     0
   165   -0.0035    0.0328    0.0052    0.0013   12.4771   14.8455    0.0010   164   165   166     0
   166   -0.0023    0.0331    0.0054    0.0013   12.4771   14.8455    0.0010   165   166   167     0
   167   -0.0012    0.0334    0.0057    0.0013   12.4771   14.8455    0.0010   166   167   168     0
   168    0.0000    0.0337    0.0060    0.0013   12.4771   14.8455    0.0010   167   168   169     0
   169    0.0012    0.0340    0.0063    0.0013   12.4771   14.8455    0.0010   168   169   170     0
   170    0.0024    0.0344    0.0065    0.0013   12.4771   14.8455    0.0010   169   170   171     0
   171    0.0036    0.0347    0.0068    0.0013   12.4771   14.8455    0.0010   170   171   172     0
   172    0.0048    0.0350    0.0071    0.0013   12.4771   14.8455    0.0010   171   172   173     0
   173    0.0060    0.0353    0.0074    0.0013   12.4771   14.8455    0.0010   172   173   174     0
   174    0.0071    0.0356    0.0076    0.0013   12.4771   14.8455    0.0010   173   174   175     0
   175    0.0083    0.0359    0.0079    0.0013   12.4771   14.8455    0.0010   174   175   176     0
   176    0.0095    0.0362    0.0082    0.0013   12.4771   14.8455    0.0010   175   176   177     0
   177    0.0107    0.0366    0.0084    0.0013   12.4771   14.8455    0.0010   176   177   178     0
   178    0.0119    0.0369    0.0087    0.0013   12.4771   14.8455    0.0010   177   178   179     0
   179    0.0131    0.0372    0.0090    0.0013   12.4771   14.8455    0.0010   178   179   180     0
   180    0.0143    0.0375    0.0093    0.0013   12.4771   14.8455    0.0010   179   180   181     0
   181    0.0154    0.0378    0.0095    0.0013   12.4771   14.8455    0.0010   180   181   182     0
   182    0.0166    0.0381    0.0098    0.0013   12.4771   14.8455    0.0010   181   182   183     0
   183    0.0178    0.0384    0.0101    0.0013   12.4771   14.8455    0.0010   182   183   184     0
   184    0.0190    0.0388    0.0103    0.0013   12.4771   14.8455    0.0010   183   184   185     0
   185    0.0202    0.0391    0.0106    0.0013   12.4771   14.8455    0.0010   184   185   186     0
   186    0.0214    0.0394    0.0109    0.0013   12.4771   14.8455    0.0010   185   186   187     0
   187    0.0226    0.0397    0.0112    0.0013   12.4771   14.8455    0.0010   186   187   188     0
   188    0.0237    0.0400    0.0114    0.0013   12.4771   14.8455    0.0010   187   188   189     0
   189    0.0249    0.0403    0.0117    0.0013   12.4771   14.8455    0.0010   188   189   190     0
   190    0.0261    0.0406    0.0120    0.0013   12.4771   14.8455    0.0010   189   190   191     0
   191    0.0273    0.0410    0.0122    0.0013   12.4771   14.8455    0.0010   190   191   192     0
   192    0.0285    0.0413    0.0125    0.0013   12.4771   14.8455    0.0010   191   192   193     0
   193    0.0297    0.0416    0.0128    0.0013   12.4771   14.8455    0.0010   192   193   194     0
   194    0.0309    0.0419    0.0131    0.0013   12.4771   14.8455    0.0010   193   194   195     0
   195    0.0320    0.0422    0.0133    0.0013   12.4771   14.8455    0.0010   194   195   196     0
   196    0.0332    0.0425    0.0136    0.0013   12.4771   14.8455    0.0010   195   196   197     0
   197    0.0344    0.0428    0.0139    0.0013   12.4771   14.8455    0.0010   196   197     0     0
   198   -0.0414    0.0078    0.0170    0.0013   -2.7124  -21.2974    0.0010    36   198   199     0
   199   -0.0402    0.0073    0.0169    0.0013   -2.7124  -21.2974    0.0010   198   199   200     0
   200   -0.0391    0.0069    0.0169    0.0013   -2.7124  -21.2974    0.0010   199   200   201     0
   201   -0.0379    0.0064    0.0168    0.0013   -2.7124  -21.2974    0.0010   200   201   202     0
   202   -0.0367    0.0059    0.0167    0.0013   -2.7124  -21.2974    0.0010   201   202   203     0
   203   -0.0355    0.0055    0.0167    0.0013   -2.7124  -21.2974    0.0010   202   203   204     0
   204   -0.0343    0.0050    0.0166    0.0013   -2.7124  -21.2974    0.0010   203   204   205     0
   205   -0.0331    0.0046    0.0166    0.0013   -2.7124  -21.2974    0.0010   204   205   206     0
   206   -0.0320    0.0041    0.0165    0.0013   -2.7124  -21.2974    0.0010   205   206   207     0
   207   -0.0308    0.0036    0.0164    0.0013   -2.7124  -21.2974    0.0010   206   207   208     0
   208   -0.0296    0.0032    0.0164    0.0013   -2.7124  -21.2974    0.0010   207   208   209     0
   209   -0.0284    0.0027    0.0163    0.0013   -2.7124  -21.2974    0.0010   208   209   210     0
   210   -0.0273    0.0023    0.0163    0.0013   -2.7124  -21.2974    0.0010   209   210   211     0
   211   -0.0261    0.0018    0.0162    0.0013   -2.7124  -21.2974    0.0010   210   211   212     0
   212   -0.0249    0.0013    0.0161    0.0013   -2.7124  -21.2974    0.0010   211   212   213     0
   213   -0.0237    0.0009    0.0161    0.0013   -2.7124  -21.2974    0.0010   212   213   214     0
   214   -0.0225    0.0004    0.0160    0.0013   -2.7124  -21.2974    0.0010   213   214   215     0
   215   -0.0214   -0.0001    0.0159    0.0013   -2.7124  -21.2974    0.0010   214   215   216     0
   216   -0.0202   -0.0005    0.0159    0.0013   -2.7124  -21.2974    0.0010   215   216   217     0
   217   -0.0190   -0.0010    0.0158    0.0013   -2.7124  -21.2974    0.0010   216   217   218     0
   218   -0.0178   -0.0014    0.0158    0.0013   -2.7124  -21.2974    0.0010   217   218   219     0
   219   -0.0166   -0.0019    0.0157    0.0013   -2.7124  -21.2974    0.0010   218   219   220     0
   220   -0.0155   -0.0024    0.0157    0.0013   -2.7124  -21.2974    0.0010   219   220   221     0
   221   -0.0143   -0.0028    0.0156    0.0013   -2.7124  -21.2974    0.0010   220   221   222     0
   222   -0.0131   -0.0033    0.0155    0.0013   -2.7124  -21.2974    0.0010   221   222   223     0
   223   -0.0119   -0.0037    0.0155    0.0013   -2.7124  -21.2974    0.0010   222   223   224     0
   224   -0.0107   -0.0042    0.0154    0.0013   -2.7124  -21.2974    0.0010   223   224   225     0
   225   -0.0096   -0.0047    0.0154    0.0013   -2.7124  -21.2974    0.0010   224   225   226     0
   226   -0.0084   -0.0051    0.0153    0.0013   -2.7124  -21.2974    0.0010   225   226   227     0
   227   -0.0072   -0.0056    0.0152    0.0013   -2.7124  -21.2974    0.0010   226   227   228     0
   228   -0.0060   -0.0060    0.0152    0.0013   -2.7124  -21.2974    0.0010   227   228   229     0
   229   -0.0048   -0.0065    0.0151    0.0013   -2.7124  -21.2974    0.0010   228   229   230     0
   230   -0.0037   -0.0070    0.0151    0.0013   -2.7124  -21.2974    0.0010   229   230   231     0
   231   -0.0025   -0.0074    0.0150    0.0013   -2.7124  -21.2974    0.0010   230   231   232     0
   232   -0.0013   -0.0079    0.0149    0.0013   -2.7124  -21.2974    0.0010   231   232   233     0
   233   -0.0001   -0.0083    0.0149    0.0013   -2.7124  -21.2974    0.0010   232   233   234     0
   234    0.0011   -0.0088    0.0148    0.0013   -2.7124  -21.2974    0.0010   233   234   235     0
   235    0.0022   -0.0093    0.0147    0.0013   -2.7124  -21.2974    0.0010   234   235   236     0
   236    0.0034   -0.0097    0.0147    0.0013   -2.7124  -21.2974    0.0010   235   236   237     0
   237    0.0046   -0.0102    0.0146    0.0013   -2.7124  -21.2974    0.0010   236   237   238     0
   238    0.0058   -0.0106    0.0146    0.0013   -2.7124  -21.2974    0.0010   237   238   239     0
   239    0.0070   -0.0111    0.0145    0.0013   -2.7124  -21.2974    0.0010   238   239   240     0
   240    0.0081   -0.0116    0.0145    0.0013   -2.7124  -21.2974    0.0010   239   240   241     0
   241    0.0093   -0.0120    0.0144    0.0013   -2.7124  -21.2974    0.0010   240   241   242     0
   242    0.0105   -0.0125    0.0143    0.0013   -2.7124  -21.2974    0.0010   241   242   243     0
   243    0.0117   -0.0129    0.0143    0.0013   -2.7124  -21.2974    0.0010   242   243   244     0
   244    0.0129   -0.0134    0.0142    0.0013   -2.7124  -21.2974    0.0010   243   244   245     0
   245    0.0140   -0.0139    0.0141    0.0013   -2.7124  -21.2974    0.0010   244   245   246     0
   246    0.0152   -0.0143    0.0141    0.0013   -2.7124  -21.2974    0.0010   245   246   247     0
   247    0.0164   -0.0148    0.0140    0.0013   -2.7124  -21.2974    0.0010   246   247   248     0
   248    0.0167   -0.0146    0.0137    0.0013  -32.5742  128.6598    0.0010  -446   248   249     0
   249    0.0160   -0.0137    0.0130    0.0013  -32.5742  128.6598    0.0010   248   249   250     0
   250    0.0153   -0.0129    0.0123    0.0013  -32.5742  128.6598    0.0010   249   250   251     0
   251    0.0147   -0.0121    0.0116    0.0013  -32.5742  128.6598    0.0010   250   251   252     0
   252    0.0140   -0.0112    0.0109    0.0013  -32.5742  128.6598    0.0010   251   252   253     0
   253    0.0133   -0.0104    0.0103    0.0013  -32.5742  128.6598    0.0010   252   253   254     0
   254    0.0127   -0.0096    0.0096    0.0013  -32.5742  128.6598    0.0010   253   254   255     0
   255    0.0120   -0.0087    0.0089    0.0013  -32.5742  128.6598    0.0010   254   255   256     0
   256    0.0113   -0.0079    0.0082    0.0013  -32.5742  128.6598    0.0010   255   256   257     0
   257    0.0107   -0.0071    0.0075    0.0013  -32.5742  128.6598    0.0010   256   257   258     0
   258    0.0100   -0.0062    0.0068    0.0013  -32.5742  128.6598    0.0010   257   258   259     0
   259    0.0093   -0.0054    0.0062    0.0013  -32.5742  128.6598    0.0010   258   259   260     0
   260    0.0087   -0.0046    0.0055    0.0013  -32.5742  128.6598    0.0010   259   260   261     0
   261    0.0080   -0.0037    0.0048    0.0013  -32.5742  128.6598    0.0010   260   261   262     0
   262    0.0073   -0.0029    0.0041    0.0013  -32.5742  128.6598    0.0010   261   262   263     0
   263    0.0067   -0.0021    0.0034    0.0013  -32.5742  128.6598    0.0010   262   263   264     0
   264    0.0060   -0.0012    0.0028    0.0013  -32.5742  128.6598    0.0010   263   264   265     0
   265    0.0053   -0.0004    0.0021    0.0013  -32.5742  128.6598    0.0010   264   265   266     0
   266    0.0047    0.0004    0.0014    0.0013  -32.5742  128.6598    0.0010   265   266   267     0
   267    0.0040    0.0013    0.0007    0.0013  -32.5742  128.6598    0.0010   266   267   268     0
   268    0.0033    0.0021    0.0000    0.0013  -32.5742  128.6598    0.0010   267   268   269     0
   269    0.0027    0.0029   -0.0007    0.0013  -32.5742  128.6598    0.0010   268   269   270     0
   270    0.0020    0.0038   -0.0013    0.0013  -32.5742  128.6598    0.0010   269   270   271     0
   271    0.0013    0.0046   -0.0020    0.0013  -32.5742  128.6598    0.0010   270   271   272     0
   272    0.0007    0.0054   -0.0027    0.0013  -32.5742  128.6598    0.0010   271   272   273     0
   273    0.0000    0.0063   -0.0034    0.0013  -32.5742  128.6598    0.0010   272   273   274     0
   274   -0.0007    0.0071   -0.0041    0.0013  -32.5742  128.6598    0.0010   273   274   275     0
   275   -0.0013    0.0079   -0.0047    0.0013  -32.5742  128.6598    0.0010   274   275   276     0
   276   -0.0020    0.0088   -0.0054    0.0013  -32.5742  128.6598    0.0010   275   276   277     0
   277   -0.0027    0.0096   -0.0061    0.0013  -32.5742  128.6598    0.0010   276   277   278     0
   278   -0.0033    0.0104   -0.0068    0.0013  -32.5742  128.6598    0.0010   277   278   279     0
   279   -0.0040    0.0113   -0.0075    0.0013  -32.5742  128.6598    0.0010   278   279   280     0
   280   -0.0047    0.0121   -0.0082    0.0013  -32.5742  128.6598    0.0010   279   280   281     0
   281   -0.0053    0.0129   -0.0088    0.0013  -32.5742  128.6598    0.0010   280   281   282     0
   282   -0.0060    0.0138   -0.0095    0.0013  -32.5742  128.6598    0.0010   281   282   283     0
   283   -0.0067    0.0146   -0.0102    0.0013  -32.5742  128.6598    0.0010   282   283   284     0
   284   -0.0073    0.0154   -0.0109    0.0013  -32.5742  128.6598    0.0010   283   284   285     0
   285   -0.0080    0.0163   -0.0116    0.0013  -32.5742  128.6598    0.0010   284   285   286     0
   286   -0.0087    0.0171   -0.0122    0.0013  -32.5742  128.6598    0.0010   285   286   287     0
   287   -0.0093    0.0179   -0.0129    0.0013  -32.5742  128.6598    0.0010   286   287   288     0
   288   -0.0100    0.0188   -0.0136    0.0013  -32.5742  128.6598    0.0010   287   288   289     0
   289   -0.0107    0.0196   -0.0143    0.0013  -32.5742  128.6598    0.0010   288   289   290     0
   290   -0.0113    0.0204   -0.0150    0.0013  -32.5742  128.6598    0.0010   289   290   291     0
   291   -0.0120    0.0213   -0.0157    0.0013  -32.5742  128.6598    0.0010   290   291   292     0
   292   -0.0127    0.0221   -0.0163    0.0013  -32.5742  128.6598    0.0010   291   292   293     0
   293   -0.0133    0.0229   -0.0170    0.0013  -32.5742  128.6598    0.0010   292   293   294     0
   294   -0.0140    0.0238   -0.0177    0.0013  -32.5742  128.6598    0.0010   293   294   295     0
   295   -0.0147    0.0246   -0.0184    0.0013  -32.5742  128.6598    0.0010   294   295   296     0
   296   -0.0153    0.0254   -0.0191    0.0013  -32.5742  128.6598    0.0010   295   296   297     0
   297   -0.0160    0.0263   -0.0197    0.0013  -32.5742  128.6598    0.0010   296   297   298     0
   298   -0.0167    0.0271   -0.0204    0.0013  -32.5742  128.6598    0.0010   297   298   299     0
   299   -0.0173    0.0279   -0.0211    0.0013  -32.5742  128.6598    0.0010   298   299   300     0
   300   -0.0180    0.0288   -0.0218    0.0013  -32.5742  128.6598    0.0010   299   300   301     0
   301   -0.0187    0.0296   -0.0225    0.0013  -32.5742  128.6598    0.0010   300   301   302     0
   302   -0.0193    0.0304   -0.0232    0.0013  -32.5742  128.6598    0.0010   301   302   303     0
   303   -0.0200    0.0312   -0.0238    0.0013  -32.5742  128.6598    0.0010   302   303   304     0
   304   -0.0207    0.0321   -0.0245    0.0013  -32.5742  128.6598    0.0010   303   304   305     0
   305   -0.0213    0.0329   -0.0252    0.0013  -32.5742  128.6598    0.0010   304   305   306     0
   306   -0.0220    0.0338   -0.0259    0.0013  -32.5742  128.6598    0.0010   305   306   307     0
   307   -0.0227    0.0346   -0.0266    0.0013  -32.5742  128.6598    0.0010   306   307   308     0
   308   -0.0233    0.0354   -0.0272    0.0013  -32.5742  128.6598    0.0010   307   308   309     0
   309   -0.0240    0.0363   -0.0279    0.0013  -32.5742  128.6598    0.0010   308   309   310     0
   310   -0.0247    0.0371   -0.0286    0.0013  -32.5742  128.6598    0.0010   309   310   311     0
   311   -0.0253    0.0379   -0.0293    0.0013  -32.5742  128.6598    0.0010   310   311   312     0
   312   -0.0260    0.0388   -0.0300    0.0013  -32.5742  128.6598    0.0010   311   312   313     0
   313   -0.0267    0.0396   -0.0307    0.0013  -32.5742  128.6598    0.0010   312   313   314     0
   314   -0.0266    0.0397   -0.0307    0.0013   33.6956  -34.4085    0.0010   313   314   315     0
   315   -0.0257    0.0391   -0.0300    0.0013   33.6956  -34.4085    0.0010   314   315   316     0
   316   -0.0249    0.0385   -0.0293    0.0013   33.6956  -34.4085    0.0010   315   316   317     0
   317   -0.0240    0.0379   -0.0286    0.0013   33.6956  -34.4085    0.0010   316   317   318     0
   318   -0.0231    0.0374   -0.0279    0.0013   33.6956  -34.4085    0.0010   317   318   319     0
   319   -0.0223    0.0368   -0.0272    0.0013   33.6956  -34.4085    0.0010   318   319   320     0
   320   -0.0214    0.0362   -0.0265    0.0013   33.6956  -34.4085    0.0010   319   320   321     0
   321   -0.0206    0.0356   -0.0258    0.0013   33.6956  -34.4085    0.0010   320   321   322     0
   322   -0.0197    0.0350   -0.0251    0.0013   33.6956  -34.4085    0.0010   321   322   323     0
   323   -0.0188    0.0344   -0.0244    0.0013   33.6956  -34.4085    0.0010   322   323   324     0
   324   -0.0180    0.0338   -0.0237    0.0013   33.6956  -34.4085    0.0010   323   324   325     0
   325   -0.0171    0.0332   -0.0230    0.0013   33.6956  -34.4085    0.0010   324   325   326     0
   326   -0.0163    0.0326   -0.0223    0.0013   33.6956  -34.4085    0.0010   325   326   327     0
   327   -0.0154    0.0321   -0.0216    0.0013   33.6956  -34.4085    0.0010   326   327   328     0
   328   -0.0145    0.0315   -0.0209    0.0013   33.6956  -34.4085    0.0010   327   328   329     0
   329   -0.0137    0.0309   -0.0202    0.0013   33.6956  -34.4085    0.0010   328   329   330     0
   330   -0.0128    0.0303   -0.0195    0.0013   33.6956  -34.4085    0.0010   329   330   331     0
   331   -0.0120    0.0297   -0.0189    0.0013   33.6956  -34.4085    0.0010   330   331   332     0
   332   -0.0111    0.0291   -0.0182    0.0013   33.6956  -34.4085    0.0010   331   332   333     0
   333   -0.0103    0.0285   -0.0175    0.0013   33.6956  -34.4085    0.0010   332   333   334     0
   334   -0.0094    0.0279   -0.0168    0.0013   33.6956  -34.4085    0.0010   333   334   335     0
   335   -0.0085    0.0274   -0.0161    0.0013   33.6956  -34.4085    0.0010   334   335   336     0
   336   -0.0077    0.0268   -0.0154    0.0013   33.6956  -34.4085    0.0010   335   336   337     0
   337   -0.0068    0.0262   -0.0147    0.0013   33.6956  -34.4085    0.0010   336   337   338     0
   338   -0.0060    0.0256   -0.0140    0.0013   33.6956  -34.4085    0.0010   337   338   339     0
   339   -0.0051    0.0250   -0.0133    0.0013   33.6956  -34.4085    0.0010   338   339   340     0
   340   -0.0042    0.0244   -0.0126    0.0013   33.6956  -34.4085    0.0010   339   340   341     0
   341   -0.0034    0.0238   -0.0119    0.0013   33.6956  -34.4085    0.0010   340   341   342     0
   342   -0.0025    0.0232   -0.0112    0.0013   33.6956  -34.4085    0.0010   341   342   343     0
   343   -0.0017    0.0226   -0.0105    0.0013   33.6956  -34.4085    0.0010   342   343   344     0
   344   -0.0008    0.0221   -0.0098    0.0013   33.6956  -34.4085    0.0010   343   344   345     0
   345    0.0001    0.0215   -0.0091    0.0013   33.6956  -34.4085    0.0010   344   345   346     0
   346    0.0009    0.0209   -0.0084    0.0013   33.6956  -34.4085    0.0010   345   346   347     0
   347    0.0018    0.0203   -0.0077    0.0013   33.6956  -34.4085    0.0010   346   347   348     0
   348    0.0026    0.0197   -0.0071    0.0013   33.6956  -34.4085    0.0010   347   348   349     0
   349    0.0035    0.0191   -0.0064    0.0013   33.6956  -34.4085    0.0010   348   349   350     0
   350    0.0043    0.0185   -0.0057    0.0013   33.6956  -34.4085    0.0010   349   350   351     0
   351    0.0052    0.0179   -0.0050    0.0013   33.6956  -34.4085    0.0010   350   351   352     0
   352    0.0061    0.0174   -0.0043    0.0013   33.6956  -34.4085    0.0010   351   352   353     0
   353    0.0069    0.0168   -0.0036    0.0013   33.6956  -34.4085    0.0010   352   353   354     0
   354    0.0078    0.0162   -0.0029    0.0013   33.6956  -34.4085    0.0010   353   354   355     0
   355    0.0086    0.0156   -0.0022    0.0013   33.6956  -34.4085    0.0010   354   355   356     0
   356    0.0095    0.0150   -0.0015    0.0013   33.6956  -34.4085    0.0010   355   356   357     0
   357    0.0104    0.0144   -0.0008    0.0013   33.6956  -34.4085    0.0010   356   357   358     0
   358    0.0112    0.0138   -0.0001    0.0013   33.6956  -34.4085    0.0010   357   358   359     0
   359    0.0121    0.0132    0.0006    0.0013   33.6956  -34.4085    0.0010   358   359   360     0
   360    0.0129    0.0126    0.0013    0.0013   33.6956  -34.4085    0.0010   359   360   361     0
   361    0.0138    0.0121    0.0020    0.0013   33.6956  -34.4085    0.0010   360   361   362     0
   362    0.0147    0.0115    0.0027    0.0013   33.6956  -34.4085    0.0010   361   362   363     0
   363    0.0155    0.0109    0.0034    0.0013   33.6956  -34.4085    0.0010   362   363   364     0
   364    0.0164    0.0103    0.0041    0.0013   33.6956  -34.4085    0.0010   363   364   365     0
   365    0.0172    0.0097    0.0047    0.0013   33.6956  -34.4085    0.0010   364   365   366     0
   366    0.0181    0.0091    0.0054    0.0013   33.6956  -34.4085    0.0010   365   366   367     0
   367    0.0189    0.0085    0.0061    0.0013   33.6956  -34.4085    0.0010   366   367   368     0
   368    0.0198    0.0079    0.0068    0.0013   33.6956  -34.4085    0.0010   367   368   369     0
   369    0.0207    0.0074    0.0075    0.0013   33.6956  -34.4085    0.0010   368   369   370     0
   370    0.0215    0.0068    0.0082    0.0013   33.6956  -34.4085    0.0010   369   370   371     0
   371    0.0224    0.0062    0.0089    0.0013   33.6956  -34.4085    0.0010   370   371   372     0
   372    0.0232    0.0056    0.0096    0.0013   33.6956  -34.4085    0.0010   371   372   373     0
   373    0.0241    0.0050    0.0103    0.0013   33.6956  -34.4085    0.0010   372   373   374     0
   374    0.0250    0.0044    0.0110    0.0013   33.6956  -34.4085    0.0010   373   374   375     0
   375    0.0258    0.0038    0.0117    0.0013   33.6956  -34.4085    0.0010   374   375   376     0
   376    0.0267    0.0032    0.0124    0.0013   33.6956  -34.4085    0.0010   375   376   377     0
   377    0.0275    0.0026    0.0131    0.0013   33.6956  -34.4085    0.0010   376   377   378     0
   378    0.0284    0.0021    0.0138    0.0013   33.6956  -34.4085    0.0010   377   378   379     0
   379    0.0293    0.0015    0.0145    0.0013   33.6956  -34.4085    0.0010   378   379   380     0
   380    0.0301    0.0009    0.0152    0.0013   33.6956  -34.4085    0.0010   379   380   381     0
   381    0.0310    0.0003    0.0159    0.0013   33.6956  -34.4085    0.0010   380   381   382     0
   382    0.0318   -0.0003    0.0165    0.0013   33.6956  -34.4085    0.0010   381   382   383     0
   383    0.0327   -0.0009    0.0172    0.0013   33.6956  -34.4085    0.0010   382   383   384     0
   384    0.0335   -0.0015    0.0179    0.0013   33.6956  -34.4085    0.0010   383   384   385     0
   385    0.0344   -0.0021    0.0186    0.0013   33.6956  -34.4085    0.0010   384   385   386     0
   386    0.0353   -0.0026    0.0193    0.0013   33.6956  -34.4085    0.0010   385   386   387     0
   387    0.0361   -0.0032    0.0200    0.0013   33.6956  -34.4085    0.0010   386   387   388     0
   388    0.0370   -0.0038    0.0207    0.0013   33.6956  -34.4085    0.0010   387   388   389     0
   389    0.0378   -0.0044    0.0214    0.0013   33.6956  -34.4085    0.0010   388   389   390     0
   390    0.0387   -0.0050    0.0221    0.0013   33.6956  -34.4085    0.0010   389   390   391     0
   391    0.0396   -0.0056    0.0228    0.0013   33.6956  -34.4085    0.0010   390   391   392     0
   392    0.0404   -0.0062    0.0235    0.0013   33.6956  -34.4085    0.0010   391   392   393     0
   393    0.0413   -0.0068    0.0242    0.0013   33.6956  -34.4085    0.0010   392   393   394     0
   394    0.0421   -0.0074    0.0249    0.0013   33.6956  -34.4085    0.0010   393   394   395     0
   395    0.0430   -0.0079    0.0256    0.0013   33.6956  -34.4085    0.0010   394   395   396     0
   396    0.0439   -0.0085    0.0263    0.0013   33.6956  -34.4085    0.0010   395   396   397     0
   397    0.0447   -0.0091    0.0270    0.0013   33.6956  -34.4085    0.0010   396   397   398     0
   398    0.0456   -0.0097    0.0277    0.0013   33.6956  -34.4085    0.0010   397   398   399     0
   399    0.0454   -0.0099    0.0280    0.0013    2.9005  175.1560    0.0010   398   399   400     0
   400    0.0441   -0.0098    0.0281    0.0013    2.9005  175.1560    0.0010   399   400   401     0
   401    0.0429   -0.0097    0.0282    0.0013    2.9005  175.1560    0.0010   400   401   402     0
   402    0.0416   -0.0096    0.0282    0.0013    2.9005  175.1560    0.0010   401   402   403     0
   403    0.0404   -0.0095    0.0283    0.0013    2.9005  175.1560    0.0010   402   403   404     0
   404    0.0391   -0.0094    0.0284    0.0013    2.9005  175.1560    0.0010   403   404   405     0
   405    0.0378   -0.0093    0.0284    0.0013    2.9005  175.1560    0.0010   404   405   406     0
   406    0.0366   -0.0092    0.0285    0.0013    2.9005  175.1560    0.0010   405   406   407     0
   407    0.0353   -0.0091    0.0285    0.0013    2.9005  175.1560    0.0010   406   407   408     0
   408    0.0341   -0.0090    0.0286    0.0013    2.9005  175.1560    0.0010   407   408   409     0
   409    0.0328   -0.0089    0.0287    0.0013    2.9005  175.1560    0.0010   408   409   410     0
   410    0.0316   -0.0088    0.0287    0.0013    2.9005  175.1560    0.0010   409   410   411     0
   411    0.0303   -0.0087    0.0288    0.0013    2.9005  175.1560    0.0010   410   411   412     0
   412    0.0291   -0.0086    0.0289    0.0013    2.9005  175.1560    0.0010   411   412   413     0
   413    0.0278   -0.0085    0.0289    0.0013    2.9005  175.1560    0.0010   412   413   414     0
   414    0.0265   -0.0084    0.0290    0.0013    2.9005  175.1560    0.0010   413   414   415     0
   415    0.0253   -0.0082    0.0291    0.0013    2.9005  175.1560    0.0010   414   415   416     0
   416    0.0240   -0.0081    0.0291    0.0013    2.9005  175.1560    0.0010   415   416   417     0
   417    0.0228   -0.0080    0.0292    0.0013    2.9005  175.1560    0.0010   416   417   418     0
   418    0.0215   -0.0079    0.0292    0.0013    2.9005  175.1560    0.0010   417   418   419     0
   419    0.0203   -0.0078    0.0293    0.0013    2.9005  175.1560    0.0010   418   419   420     0
   420    0.0190   -0.0077    0.0294    0.0013    2.9005  175.1560    0.0010   419   420   421     0
   421    0.0178   -0.0076    0.0294    0.0013    2.9005  175.1560    0.0010   420   421   422     0
   422    0.0165   -0.0075    0.0295    0.0013    2.9005  175.1560    0.0010   421   422   423     0
   423    0.0152   -0.0074    0.0296    0.0013    2.9005  175.1560    0.0010   422   423   424     0
   424    0.0140   -0.0073    0.0296    0.0013    2.9005  175.1560    0.0010   423   424   425     0
   425    0.0127   -0.0072    0.0297    0.0013    2.9005  175.1560    0.0010   424   425   426     0
   426    0.0115   -0.0071    0.0298    0.0013    2.9005  175.1560    0.0010   425   426   427     0
   427    0.0102   -0.0070    0.0298    0.0013    2.9005  175.1560    0.0010   426   427   428     0
   428    0.0090   -0.0069    0.0299    0.0013    2.9005  175.1560    0.0010   427   428   429     0
   429    0.0077   -0.0068    0.0299    0.0013    2.9005  175.1560    0.0010   428   429   430     0
   430    0.0065   -0.0066    0.0300    0.0013    2.9005  175.1560    0.0010   429   430   431     0
   431    0.0052   -0.0065    0.0301    0.0013    2.9005  175.1560    0.0010   430   431   432     0
   432    0.0039   -0.0064    0.0301    0.0013    2.9005  175.1560    0.0010   431   432   433     0
   433    0.0027   -0.0063    0.0302    0.0013    2.9005  175.1560    0.0010   432   433   434     0
   434    0.0014   -0.0062    0.0303    0.0013    2.9005  175.1560    0.0010   433   434   435     0
   435    0.0002   -0.0061    0.0303    0.0013    2.9005  175.1560    0.0010   434   435   436     0
   436   -0.0011   -0.0060    0.0304    0.0013    2.9005  175.1560    0.0010   435   436   437     0
   437   -0.0023   -0.0059    0.0305    0.0013    2.9005  175.1560    0.0010   436   437   438     0
   438   -0.0036   -0.0058    0.0305    0.0013    2.9005  175.1560    0.0010   437   438   439     0
   439   -0.0048   -0.0057    0.0306    0.0013    2.9005  175.1560    0.0010   438   439   440     0
   440   -0.0061   -0.0056    0.0306    0.0013    2.9005  175.1560    0.0010   439   440   441     0
   441   -0.0074   -0.0055    0.0307    0.0013    2.9005  175.1560    0.0010   440   441   442     0
   442   -0.0086   -0.0054    0.0308    0.0013    2.9005  175.1560    0.0010   441   442   443     0
   443   -0.0099   -0.0053    0.0308    0.0013    2.9005  175.1560    0.0010   442   443   444     0
   444   -0.0111   -0.0052    0.0309    0.0013    2.9005  175.1560    0.0010   443   444   445     0
   445   -0.0124   -0.0051    0.0310    0.0013    2.9005  175.1560    0.0010   444   445     0     0
   446    0.0165   -0.0152    0.0136    0.0013  -38.0675 -160.5139    0.0010   247   446   447     0
   447    0.0156   -0.0155    0.0128    0.0013  -38.0675 -160.5139    0.0010   446   447   448     0
   448    0.0147   -0.0158    0.0121    0.0013  -38.0675 -160.5139    0.0010   447   448   449     0
   449    0.0138   -0.0161    0.0113    0.0013  -38.0675 -160.5139    0.0010   448   449   450     0
   450    0.0128   -0.0165    0.0105    0.0013  -38.0675 -160.5139    0.0010   449   450   451     0
   451    0.0119   -0.0168    0.0098    0.0013  -38.0675 -160.5139    0.0010   450   451   452     0
   452    0.0110   -0.0171    0.0090    0.0013  -38.0675 -160.5139    0.0010   451   452   453     0
   453    0.0100   -0.0175    0.0082    0.0013  -38.0675 -160.5139    0.0010   452   453   454     0
   454    0.0091   -0.0178    0.0074    0.0013  -38.0675 -160.5139    0.0010   453   454   455     0
   455    0.0082   -0.0181    0.0067    0.0013  -38.0675 -160.5139    0.0010   454   455   456     0
   456    0.0073   -0.0185    0.0059    0.0013  -38.0675 -160.5139    0.0010   455   456   457     0
   457    0.0063   -0.0188    0.0051    0.0013  -38.0675 -160.5139    0.0010   456   457   458     0
   458    0.0054   -0.0191    0.0044    0.0013  -38.0675 -160.5139    0.0010   457   458   459     0
   459    0.0045   -0.0194    0.0036    0.0013  -38.0675 -160.5139    0.0010   458   459   460     0
   460    0.0035   -0.0198    0.0028    0.0013  -38.0675 -160.5139    0.0010   459   460   461     0
   461    0.0026   -0.0201    0.0020    0.0013  -38.0675 -160.5139    0.0010   460   461   462     0
   462    0.0017   -0.0204    0.0013    0.0013  -38.0675 -160.5139    0.0010   461   462   463     0
   463    0.0008   -0.0207    0.0005    0.0013  -38.0675 -160.5139    0.0010   462   463   464     0
   464   -0.0002   -0.0211   -0.0003    0.0013  -38.0675 -160.5139    0.0010   463   464   465     0
   465   -0.0011   -0.0214   -0.0010    0.0013  -38.0675 -160.5139    0.0010   464   465   466     0
   466   -0.0020   -0.0217   -0.0018    0.0013  -38.0675 -160.5139    0.0010   465   466   467     0
   467   -0.0030   -0.0221   -0.0026    0.0013  -38.0675 -160.5139    0.0010   466   467   468     0
   468   -0.0039   -0.0224   -0.0034    0.0013  -38.0675 -160.5139    0.0010   467   468   469     0
   469   -0.0048   -0.0227   -0.0041    0.0013  -38.0675 -160.5139    0.0010   468   469   470     0
   470   -0.0057   -0.0231   -0.0049    0.0013  -38.0675 -160.5139    0.0010   469   470   471     0
   471   -0.0067   -0.0234   -0.0057    0.0013  -38.0675 -160.5139    0.0010   470   471   472     0
   472   -0.0076   -0.0237   -0.0064    0.0013  -38.0675 -160.5139    0.0010   471   472   473     0
   473   -0.0085   -0.0240   -0.0072    0.0013  -38.0675 -160.5139    0.0010   472   473   474     0
   474   -0.0095   -0.0244   -0.0080    0.0013  -38.0675 -160.5139    0.0010   473   474   475     0
   475   -0.0104   -0.0247   -0.0088    0.0013  -38.0675 -160.5139    0.0010   474   475   476     0
   476   -0.0113   -0.0250   -0.0095    0.0013  -38.0675 -160.5139    0.0010   475   476   477     0
   477   -0.0122   -0.0253   -0.0103    0.0013  -38.0675 -160.5139    0.0010   476   477   478     0
   478   -0.0132   -0.0257   -0.0111    0.0013  -38.0675 -160.5139    0.0010   477   478   479     0
   479   -0.0141   -0.0260   -0.0118    0.0013  -38.0675 -160.5139    0.0010   478   479   480     0
   480   -0.0150   -0.0263   -0.0126    0.0013  -38.0675 -160.5139    0.0010   479   480   481     0
   481   -0.0160   -0.0267   -0.0134    0.0013  -38.0675 -160.5139    0.0010   480   481   482     0
   482   -0.0169   -0.0270   -0.0142    0.0013  -38.0675 -160.5139    0.0010   481   482   483     0
   483   -0.0178   -0.0273   -0.0149    0.0013  -38.0675 -160.5139    0.0010   482   483   484     0
   484   -0.0187   -0.0276   -0.0157    0.0013  -38.0675 -160.5139    0.0010   483   484   485     0
   485   -0.0197   -0.0280   -0.0165    0.0013  -38.0675 -160.5139    0.0010   484   485   486     0
   486   -0.0206   -0.0283   -0.0172    0.0013  -38.0675 -160.5139    0.0010   485   486   487     0
   487   -0.0215   -0.0286   -0.0180    0.0013  -38.0675 -160.5139    0.0010   486   487   488     0
   488   -0.0225   -0.0290   -0.0188    0.0013  -38.0675 -160.5139    0.0010   487   488   489     0
   489   -0.0234   -0.0293   -0.0196    0.0013  -38.0675 -160.5139    0.0010   488   489   490     0
   490   -0.0243   -0.0296   -0.0203    0.0013  -38.0675 -160.5139    0.0010   489   490   491     0
   491   -0.0252   -0.0299   -0.0211    0.0013  -38.0675 -160.5139    0.0010   490   491   492     0
   492   -0.0262   -0.0303   -0.0219    0.0013  -38.0675 -160.5139    0.0010   491   492   493     0
   493   -0.0271   -0.0306   -0.0226    0.0013  -38.0675 -160.5139    0.0010   492   493   494     0
   494   -0.0280   -0.0309   -0.0234    0.0013  -38.0675 -160.5139    0.0010   493   494   495     0
   495   -0.0290   -0.0313   -0.0242    0.0013  -38.0675 -160.5139    0.0010   494   495   496     0
   496   -0.0299   -0.0316   -0.0250    0.0013  -38.0675 -160.5139    0.0010   495   496   497     0
   497   -0.0308   -0.0319   -0.0257    0.0013  -38.0675 -160.5139    0.0010   496   497   498     0
   498   -0.0318   -0.0323   -0.0265    0.0013  -38.0675 -160.5139    0.0010   497   498   499     0
   499   -0.0327   -0.0326   -0.0273    0.0013  -38.0675 -160.5139    0.0010   498   499   500     0
   500   -0.0336   -0.0329   -0.0280    0.0013  -38.0675 -160.5139    0.0010   499   500   501     0
   501   -0.0345   -0.0332   -0.0288    0.0013  -38.0675 -160.5139    0.0010   500   501   502     0
   502   -0.0355   -0.0336   -0.0296    0.0013  -38.0675 -160.5139    0.0010   501   502   503     0
   503   -0.0364   -0.0339   -0.0304    0.0013  -38.0675 -160.5139    0.0010   502   503   504     0
   504   -0.0373   -0.0342   -0.0311    0.0013  -38.0675 -160.5139    0.0010   503   504   505     0
   505   -0.0382   -0.0345   -0.0319    0.0013  -38.0675 -160.5139    0.0010   504   505   506     0
   506   -0.0392   -0.0349   -0.0327    0.0013  -38.0675 -160.5139    0.0010   505   506   507     0
   507   -0.0401   -0.0352   -0.0334    0.0013  -38.0675 -160.5139    0.0010   506   507   508     0
   508   -0.0410   -0.0355   -0.0342    0.0013  -38.0675 -160.5139    0.0010   507   508   509     0
   509   -0.0420   -0.0359   -0.0350    0.0013  -38.0675 -160.5139    0.0010   508   509   510     0
   510   -0.0429   -0.0362   -0.0358    0.0013  -38.0675 -160.5139    0.0010   509   510   511     0
   511   -0.0438   -0.0365   -0.0365    0.0013  -38.0675 -160.5139    0.0010   510   511   512     0
   512   -0.0447   -0.0369   -0.0373    0.0013  -38.0675 -160.5139    0.0010   511   512   513     0
   513   -0.0457   -0.0372   -0.0381    0.0013  -38.0675 -160.5139    0.0010   512   513   514     0
   514   -0.0466   -0.0375   -0.0388    0.0013  -38.0675 -160.5139    0.0010   513   514   515     0
   515   -0.0475   -0.0378   -0.0396    0.0013  -38.0675 -160.5139    0.0010   514   515   516     0
   516   -0.0474   -0.0380   -0.0400    0.0013    0.0000   -4.1276    0.0010   515   516   517     0
   517   -0.0461   -0.0381   -0.0400    0.0013    0.0000   -4.1276    0.0010   516   517   518     0
   518   -0.0449   -0.0382   -0.0400    0.0013    0.0000   -4.1276    0.0010   517   518   519     0
   519   -0.0436   -0.0383   -0.0400    0.0013    0.0000   -4.1276    0.0010   518   519   520     0
   520   -0.0423   -0.0384   -0.0400    0.0013    0.0000   -4.1276    0.0010   519   520   521     0
   521   -0.0411   -0.0385   -0.0400    0.0013    0.0000   -4.1276    0.0010   520   521   522     0
   522   -0.0398   -0.0386   -0.0400    0.0013    0.0000   -4.1276    0.0010   521   522   523     0
   523   -0.0386   -0.0387   -0.0400    0.0013    0.0000   -4.1276    0.0010   522   523   524     0
   524   -0.0373   -0.0388   -0.0400    0.0013    0.0000   -4.1276    0.0010   523   524   525     0
   525   -0.0360   -0.0389   -0.0400    0.0013    0.0000   -4.1276    0.0010   524   525   526     0
   526   -0.0348   -0.0390   -0.0400    0.0013    0.0000   -4.1276    0.0010   525   526   527     0
   527   -0.0335   -0.0390   -0.0400    0.0013    0.0000   -4.1276    0.0010   526   527   528     0
   528   -0.0323   -0.0391   -0.0400    0.0013    0.0000   -4.1276    0.0010   527   528   529     0
   529   -0.0310   -0.0392   -0.0400    0.0013    0.0000   -4.1276    0.0010   528   529   530     0
   530   -0.0297   -0.0393   -0.0400    0.0013    0.0000   -4.1276    0.0010   529   530   531     0
   531   -0.0285   -0.0394   -0.0400    0.0013    0.0000   -4.1276    0.0010   530   531   532     0
   532   -0.0272   -0.0395   -0.0400    0.0013    0.0000   -4.1276    0.0010   531   532   533     0
   533   -0.0260   -0.0396   -0.0400    0.0013    0.0000   -4.1276    0.0010   532   533   534     0
   534   -0.0247   -0.0397   -0.0400    0.0013    0.0000   -4.1276    0.0010   533   534   535     0
   535   -0.0234   -0.0398   -0.0400    0.0013    0.0000   -4.1276    0.0010   534   535   536     0
   536   -0.0222   -0.0399   -0.0400    0.0013    0.0000   -4.1276    0.0010   535   536   537     0
   537   -0.0209   -0.0400   -0.0400    0.0013    0.0000   -4.1276    0.0010   536   537   538     0
   538   -0.0197   -0.0400   -0.0400    0.0013    0.0000   -4.1276    0.0010   537   538   539     0
   539   -0.0184   -0.0401   -0.0400    0.0013    0.0000   -4.1276    0.0010   538   539   540     0
   540   -0.0171   -0.0402   -0.0400    0.0013    0.0000   -4.1276    0.0010   539   540   541     0
   541   -0.0159   -0.0403   -0.0400    0.0013    0.0000   -4.1276    0.0010   540   541   542     0
   542   -0.0146   -0.0404   -0.0400    0.0013    0.0000   -4.1276    0.0010   541   542   543     0
   543   -0.0134   -0.0405   -0.0400    0.0013    0.0000   -4.1276    0.0010   542   543   544     0
   544   -0.0121   -0.0406   -0.0400    0.0013    0.0000   -4.1276    0.0010   543   544   545     0
   545   -0.0108   -0.0407   -0.0400    0.0013    0.0000   -4.1276    0.0010   544   545   546     0
   546   -0.0096   -0.0408   -0.0400    0.0013    0.0000   -4.1276    0.0010   545   546   547     0
   547   -0.0083   -0.0409   -0.0400    0.0013    0.0000   -4.1276    0.0010   546   547   548     0
   548   -0.0071   -0.0410   -0.0400    0.0013    0.0000   -4.1276    0.0010   547   548   549     0
   549   -0.0058   -0.0410   -0.0400    0.0013    0.0000   -4.1276    0.0010   548   549   550     0
   550   -0.0045   -0.0411   -0.0400    0.0013    0.0000   -4.1276    0.0010   549   550   551     0
   551   -0.0033   -0.0412   -0.0400    0.0013    0.0000   -4.1276    0.0010   550   551   552     0
   552   -0.0020   -0.0413   -0.0400    0.0013    0.0000   -4.1276    0.0010   551   552   553     0
   553   -0.0008   -0.0414   -0.0400    0.0013    0.0000   -4.1276    0.0010   552   553   554     0
   554    0.0005   -0.0415   -0.0400    0.0013    0.0000   -4.1276    0.0010   553   554   555     0
   555    0.0018   -0.0416   -0.0400    0.0013    0.0000   -4.1276    0.0010   554   555   556     0
   556    0.0030   -0.0417   -0.0400    0.0013    0.0000   -4.1276    0.0010   555   556   557     0
   557    0.0043   -0.0418   -0.0400    0.0013    0.0000   -4.1276    0.0010   556   557   558     0
   558    0.0055   -0.0419   -0.0400    0.0013    0.0000   -4.1276    0.0010   557   558   559     0
   559    0.0068   -0.0420   -0.0400    0.0013    0.0000   -4.1276    0.0010   558   559   560     0
   560    0.0081   -0.0420   -0.0400    0.0013    0.0000   -4.1276    0.0010   559   560   561     0
   561    0.0093   -0.0421   -0.0400    0.0013    0.0000   -4.1276    0.0010   560   561   562     0
   562    0.0106   -0.0422   -0.0400    0.0013    0.0000   -4.1276    0.0010   561   562   563     0
   563    0.0118   -0.0423   -0.0400    0.0013    0.0000   -4.1276    0.0010   562   563   564     0
   564    0.0131   -0.0424   -0.0400    0.0013    0.0000   -4.1276    0.0010   563   564   565     0
   565    0.0144   -0.0425   -0.0400    0.0013    0.0000   -4.1276    0.0010   564   565   566     0
   566    0.0156   -0.0426   -0.0400    0.0013    0.0000   -4.1276    0.0010   565   566   567     0
   567    0.0169   -0.0427   -0.0400    0.0013    0.0000   -4.1276    0.0010   566   567   568     0
   568    0.0181   -0.0428   -0.0400    0.0013    0.0000   -4.1276    0.0010   567   568   569     0
   569    0.0194   -0.0429   -0.0400    0.0013    0.0000   -4.1276    0.0010   568   569   570     0
   570    0.0207   -0.0430   -0.0400    0.0013    0.0000   -4.1276    0.0010   569   570   571     0
   571    0.0219   -0.0430   -0.0400    0.0013    0.0000   -4.1276    0.0010   570   571   572     0
   572    0.0232   -0.0431   -0.0400    0.0013    0.0000   -4.1276    0.0010   571   572   573     0
   573    0.0244   -0.0432   -0.0400    0.0013    0.0000   -4.1276    0.0010   572   573   574     0
   574    0.0257   -0.0433   -0.0400    0.0013    0.0000   -4.1276    0.0010   573   574   575     0
   575    0.0270   -0.0434   -0.0400    0.0013    0.0000   -4.1276    0.0010   574   575   576     0
   576    0.0282   -0.0435   -0.0400    0.0013    0.0000   -4.1276    0.0010   575   576   577     0
   577    0.0295   -0.0436   -0.0400    0.0013    0.0000   -4.1276    0.0010   576   577   578     0
   578    0.0307   -0.0437   -0.0400    0.0013    0.0000   -4.1276    0.0010   577   578   579     0
   579    0.0320   -0.0438   -0.0400    0.0013    0.0000   -4.1276    0.0010   578   579   580     0
   580    0.0333   -0.0439   -0.0400    0.0013    0.0000   -4.1276    0.0010   579   580   581     0
   581    0.0345   -0.0440   -0.0400    0.0013    0.0000   -4.1276    0.0010   580   581   582     0
   582    0.0358   -0.0440   -0.0400    0.0013    0.0000   -4.1276    0.0010   581   582   583     0
   583    0.0370   -0.0441   -0.0400    0.0013    0.0000   -4.1276    0.0010   582   583   584     0
   584    0.0383   -0.0442   -0.0400    0.0013    0.0000   -4.1276    0.0010   583   584   585     0
   585    0.0396   -0.0443   -0.0400    0.0013    0.0000   -4.1276    0.0010   584   585   586     0
   586    0.0408   -0.0444   -0.0400    0.0013    0.0000   -4.1276    0.0010   585   586   587     0
   587    0.0421   -0.0445   -0.0400    0.0013    0.0000   -4.1276    0.0010   586   587   588     0
   588    0.0433   -0.0446   -0.0400    0.0013    0.0000   -4.1276    0.0010   587   588   589     0
   589    0.0446   -0.0447   -0.0400    0.0013    0.0000   -4.1276    0.0010   588   589   590     0
   590    0.0459   -0.0448   -0.0400    0.0013    0.0000   -4.1276    0.0010   589   590   591     0
   591    0.0471   -0.0449   -0.0400    0.0013    0.0000   -4.1276    0.0010   590   591   592     0
   592    0.0484   -0.0450   -0.0400    0.0013    0.0000   -4.1276    0.0010   591   592     0     0



*****  DATA CARD N0.   1 GN  -1     0     0     0  0.00000E+00  0.00000E+00  0.00000E+00  0.00000E+00  0.00000E+00  0.00000E+00
*****  DATA CARD N0.   2 LD   5     0     0     0  3.72000E+07  0.00000E+00  0.00000E+00  0.00000E+00  0.00000E+00  0.00000E+00
*****  DATA CARD N0.   3 FR   0     1     0     0  2.40000E+03  0.00000E+00  0.00000E+00  0.00000E+00  0.00000E+00  0.00000E+00
*****  DATA CARD N0.   4 PT  -1     0     0     0  0.00000E+00  0.00000E+00  0.00000E+00  0.00000E+00  0.00000E+00  0.00000E+00
*****  DATA CARD N0.   5 EX   1     1     1     0  0.00000E+00  0.00000E+00  0.00000E+00  0.00000E+00  0.00000E+00  0.00000E+00
*****  DATA CARD N0.   6 RP   0     1     1   500  9.00000E+01  9.00000E+01  0.00000E+00  0.00000E+00  0.00000E+00  0.00000E+00


                               --------- FREQUENCY --------
                               FREQUENCY=  2.4000E+03 MHZ
                               WAVELENGTH= 1.2492E-01 METERS


                        APPROXIMATE INTEGRATION EMPLOYED FOR SEGMENTS
                        THAT ARE MORE THAN 1.000 WAVELENGTHS APART



                          ------ STRUCTURE IMPEDANCE LOADING ------

  LOCATION        RESISTANCE  INDUCTANCE  CAPACITANCE     IMPEDANCE (OHMS)   CONDUCTIVITY  CIRCUIT
  ITAG FROM THRU     OHMS       HENRYS      FARADS       REAL     IMAGINARY   MHOS/METER      TYPE
  ALL                                                                        3.7200E+07     WIRE  


                            -------- ANTENNA ENVIRONMENT --------

                            FREE SPACE


                             ---------- MATRIX TIMING ----------
                               FILL= 1180 msec  FACTOR: 2160 msec


                             ---------- EXCITATION ----------
  PLANE WAVE - THETA:    0.00 deg, PHI:    0.00 deg, ETA=   0.00 DEG, TYPE - LINEAR  AXIAL RATIO:  0.000


                             ---------- RADIATION PATTERNS -----------

 ---- ANGLES -----     ----- POWER GAINS -----       ---- POLARIZATION ----   ---- E(THETA) ----    ----- E(PHI) ------
  THETA      PHI       MAJOR    MINOR    TOTAL       AXIAL      TILT  SENSE   MAGNITUDE    PHASE    MAGNITUDE     PHASE
 DEGREES   DEGREES        DB       DB       DB       RATIO   DEGREES            VOLTS/M   DEGREES     VOLTS/M   DEGREES
   90.00     90.00      6.07   -24.61     6.07      0.0293     88.46   LEFT  2.8105E-03     88.93  7.0823E-02    136.48


                              ---------- NORMALIZED GAIN ----------
                                            TOTAL  GAIN
                                   NORMALIZATION FACTOR: 6.07 db

    ---- ANGLES ----                ---- ANGLES ----                ---- ANGLES ----
    THETA      PHI        GAIN      THETA      PHI        GAIN      THETA      PHI       GAIN
   DEGREES   DEGREES        DB     DEGREES   DEGREES        DB     DEGREES   DEGREES       DB
     90.00     90.00      0.00   



*****  DATA CARD N0.   7 EN   0     0     0     0  0.00000E+00  0.00000E+00  0.00000E+00  0.00000E+00  0.00000E+00  0.00000E+00

  TOTAL RUN TIME: 3390 msec