


                                __________________________________________
                               |                                          |
                               | NUMERICAL ELECTROMAGNETICS CODE (nec2++) |
                               | Translated to 'C++' in Double Precision  |
                               |              Version 1.0.4 [2004-11-23]              |
                               |__________________________________________|



                               ---------------- COMMENTS ----------------
                                GA - NEC FILE
                                go blue ! 



                                -------- STRUCTURE SPECIFICATION --------
                                COORDINATES MUST BE INPUT IN
                                METERS OR BE SCALED TO METERS
                                BEFORE STRUCTURE INPUT IS ENDED
  WIRE                                                                                 SEG FIRST  LAST  TAG
   No:        X1         Y1         Z1         X2         Y2         Z2       RADIUS   No:   SEG   SEG  No:

     1      0.0000     0.0000     0.0000    -0.0430    -0.0240     0.0210     0.0010    42     1    42    0
     2      0.0250     0.0070     0.0360    -0.0060    -0.0340    -0.0170     0.0010    59    43   101    0
     3      0.0010    -0.0430    -0.0400    -0.0110    -0.0490     0.0400     0.0010    64   102   165    0

     TOTAL SEGMENTS USED: 165   SEGMENTS IN A SYMMETRIC CELL: 165   SYMMETRY FLAG: 0


                               ---------- SEGMENTATION DATA ----------
                                        COORDINATES IN METERS
                            I+ AND I- INDICATE THE SEGMENTS BEFORE AND AFTER I

   SEG    COORDINATES OF SEGM CENTER     SEGM    ORIENTATION ANGLES    WIRE    CONNECTION DATA   TAG
   No:       X         Y         Z      LENGTH     ALPHA      BETA    RADIUS    I-     I    I+   NO:
     1   -0.0005   -0.0003    0.0003    0.0013   23.0956 -150.8324    0.0010     0     1     2     0
     2   -0.0015   -0.0009    0.0008    0.0013   23.0956 -150.8324    0.0010     1     2     3     0
     3   -0.0026   -0.0014    0.0013    0.0013   23.0956 -150.8324    0.0010     2     3     4     0
     4   -0.0036   -0.0020    0.0018    0.0013   23.0956 -150.8324    0.0010     3     4     5     0
     5   -0.0046   -0.0026    0.0023    0.0013   23.0956 -150.8324    0.0010     4     5     6     0
     6   -0.0056   -0.0031    0.0027    0.0013   23.0956 -150.8324    0.0010     5     6     7     0
     7   -0.0067   -0.0037    0.0033    0.0013   23.0956 -150.8324    0.0010     6     7     8     0
     8   -0.0077   -0.0043    0.0037    0.0013   23.0956 -150.8324    0.0010     7     8     9     0
     9   -0.0087   -0.0049    0.0043    0.0013   23.0956 -150.8324    0.0010     8     9    10     0
    10   -0.0097   -0.0054    0.0048    0.0013   23.0956 -150.8324    0.0010     9    10    11     0
    11   -0.0107   -0.0060    0.0052    0.0013   23.0956 -150.8324    0.0010    10    11    12     0
    12   -0.0118   -0.0066    0.0057    0.0013   23.0956 -150.8324    0.0010    11    12    13     0
    13   -0.0128   -0.0071    0.0063    0.0013   23.0956 -150.8324    0.0010    12    13    14     0
    14   -0.0138   -0.0077    0.0068    0.0013   23.0956 -150.8324    0.0010    13    14    15     0
    15   -0.0148   -0.0083    0.0072    0.0013   23.0956 -150.8324    0.0010    14    15    16     0
    16   -0.0159   -0.0089    0.0077    0.0013   23.0956 -150.8324    0.0010    15    16    17     0
    17   -0.0169   -0.0094    0.0083    0.0013   23.0956 -150.8324    0.0010    16    17    18     0
    18   -0.0179   -0.0100    0.0088    0.0013   23.0956 -150.8324    0.0010    17    18    19     0
    19   -0.0189   -0.0106    0.0093    0.0013   23.0956 -150.8324    0.0010    18    19    20     0
    20   -0.0200   -0.0111    0.0097    0.0013   23.0956 -150.8324    0.0010    19    20    21     0
    21   -0.0210   -0.0117    0.0103    0.0013   23.0956 -150.8324    0.0010    20    21    22     0
    22   -0.0220   -0.0123    0.0107    0.0013   23.0956 -150.8324    0.0010    21    22    23     0
    23   -0.0230   -0.0129    0.0112    0.0013   23.0956 -150.8324    0.0010    22    23    24     0
    24   -0.0241   -0.0134    0.0118    0.0013   23.0956 -150.8324    0.0010    23    24    25     0
    25   -0.0251   -0.0140    0.0123    0.0013   23.0956 -150.8324    0.0010    24    25    26     0
    26   -0.0261   -0.0146    0.0128    0.0013   23.0956 -150.8324    0.0010    25    26    27     0
    27   -0.0271   -0.0151    0.0133    0.0013   23.0956 -150.8324    0.0010    26    27    28     0
    28   -0.0282   -0.0157    0.0138    0.0013   23.0956 -150.8324    0.0010    27    28    29     0
    29   -0.0292   -0.0163    0.0143    0.0013   23.0956 -150.8324    0.0010    28    29    30     0
    30   -0.0302   -0.0169    0.0147    0.0013   23.0956 -150.8324    0.0010    29    30    31     0
    31   -0.0312   -0.0174    0.0152    0.0013   23.0956 -150.8324    0.0010    30    31    32     0
    32   -0.0322   -0.0180    0.0158    0.0013   23.0956 -150.8324    0.0010    31    32    33     0
    33   -0.0333   -0.0186    0.0163    0.0013   23.0956 -150.8324    0.0010    32    33    34     0
    34   -0.0343   -0.0191    0.0168    0.0013   23.0956 -150.8324    0.0010    33    34    35     0
    35   -0.0353   -0.0197    0.0173    0.0013   23.0956 -150.8324    0.0010    34    35    36     0
    36   -0.0363   -0.0203    0.0178    0.0013   23.0956 -150.8324    0.0010    35    36    37     0
    37   -0.0374   -0.0209    0.0183    0.0013   23.0956 -150.8324    0.0010    36    37    38     0
    38   -0.0384   -0.0214    0.0187    0.0013   23.0956 -150.8324    0.0010    37    38    39     0
    39   -0.0394   -0.0220    0.0192    0.0013   23.0956 -150.8324    0.0010    38    39    40     0
    40   -0.0404   -0.0226    0.0198    0.0013   23.0956 -150.8324    0.0010    39    40    41     0
    41   -0.0415   -0.0231    0.0203    0.0013   23.0956 -150.8324    0.0010    40    41    42     0
    42   -0.0425   -0.0237    0.0208    0.0013   23.0956 -150.8324    0.0010    41    42     0     0
    43    0.0247    0.0067    0.0356    0.0013  -45.8778 -127.0928    0.0010     0    43    44     0
    44    0.0242    0.0060    0.0347    0.0013  -45.8778 -127.0928    0.0010    43    44    45     0
    45    0.0237    0.0053    0.0338    0.0013  -45.8778 -127.0928    0.0010    44    45    46     0
    46    0.0232    0.0046    0.0329    0.0013  -45.8778 -127.0928    0.0010    45    46    47     0
    47    0.0226    0.0039    0.0320    0.0013  -45.8778 -127.0928    0.0010    46    47    48     0
    48    0.0221    0.0032    0.0311    0.0013  -45.8778 -127.0928    0.0010    47    48    49     0
    49    0.0216    0.0025    0.0302    0.0013  -45.8778 -127.0928    0.0010    48    49    50     0
    50    0.0211    0.0018    0.0293    0.0013  -45.8778 -127.0928    0.0010    49    50    51     0
    51    0.0205    0.0011    0.0284    0.0013  -45.8778 -127.0928    0.0010    50    51    52     0
    52    0.0200    0.0004    0.0275    0.0013  -45.8778 -127.0928    0.0010    51    52    53     0
    53    0.0195   -0.0003    0.0266    0.0013  -45.8778 -127.0928    0.0010    52    53    54     0
    54    0.0190   -0.0010    0.0257    0.0013  -45.8778 -127.0928    0.0010    53    54    55     0
    55    0.0184   -0.0017    0.0248    0.0013  -45.8778 -127.0928    0.0010    54    55    56     0
    56    0.0179   -0.0024    0.0239    0.0013  -45.8778 -127.0928    0.0010    55    56    57     0
    57    0.0174   -0.0031    0.0230    0.0013  -45.8778 -127.0928    0.0010    56    57    58     0
    58    0.0169   -0.0038    0.0221    0.0013  -45.8778 -127.0928    0.0010    57    58    59     0
    59    0.0163   -0.0045    0.0212    0.0013  -45.8778 -127.0928    0.0010    58    59    60     0
    60    0.0158   -0.0052    0.0203    0.0013  -45.8778 -127.0928    0.0010    59    60    61     0
    61    0.0153   -0.0059    0.0194    0.0013  -45.8778 -127.0928    0.0010    60    61    62     0
    62    0.0148   -0.0066    0.0185    0.0013  -45.8778 -127.0928    0.0010    61    62    63     0
    63    0.0142   -0.0072    0.0176    0.0013  -45.8778 -127.0928    0.0010    62    63    64     0
    64    0.0137   -0.0079    0.0167    0.0013  -45.8778 -127.0928    0.0010    63    64    65     0
    65    0.0132   -0.0086    0.0158    0.0013  -45.8778 -127.0928    0.0010    64    65    66     0
    66    0.0127   -0.0093    0.0149    0.0013  -45.8778 -127.0928    0.0010    65    66    67     0
    67    0.0121   -0.0100    0.0140    0.0013  -45.8778 -127.0928    0.0010    66    67    68     0
    68    0.0116   -0.0107    0.0131    0.0013  -45.8778 -127.0928    0.0010    67    68    69     0
    69    0.0111   -0.0114    0.0122    0.0013  -45.8778 -127.0928    0.0010    68    69    70     0
    70    0.0106   -0.0121    0.0113    0.0013  -45.8778 -127.0928    0.0010    69    70    71     0
    71    0.0100   -0.0128    0.0104    0.0013  -45.8778 -127.0928    0.0010    70    71    72     0
    72    0.0095   -0.0135    0.0095    0.0013  -45.8778 -127.0928    0.0010    71    72    73     0
    73    0.0090   -0.0142    0.0086    0.0013  -45.8778 -127.0928    0.0010    72    73    74     0
    74    0.0084   -0.0149    0.0077    0.0013  -45.8778 -127.0928    0.0010    73    74    75     0
    75    0.0079   -0.0156    0.0068    0.0013  -45.8778 -127.0928    0.0010    74    75    76     0
    76    0.0074   -0.0163    0.0059    0.0013  -45.8778 -127.0928    0.0010    75    76    77     0
    77    0.0069   -0.0170    0.0050    0.0013  -45.8778 -127.0928    0.0010    76    77    78     0
    78    0.0063   -0.0177    0.0041    0.0013  -45.8778 -127.0928    0.0010    77    78    79     0
    79    0.0058   -0.0184    0.0032    0.0013  -45.8778 -127.0928    0.0010    78    79    80     0
    80    0.0053   -0.0191    0.0023    0.0013  -45.8778 -127.0928    0.0010    79    80    81     0
    81    0.0048   -0.0198    0.0014    0.0013  -45.8778 -127.0928    0.0010    80    81    82     0
    82    0.0042   -0.0204    0.0005    0.0013  -45.8778 -127.0928    0.0010    81    82    83     0
    83    0.0037   -0.0211   -0.0004    0.0013  -45.8778 -127.0928    0.0010    82    83    84     0
    84    0.0032   -0.0218   -0.0013    0.0013  -45.8778 -127.0928    0.0010    83    84    85     0
    85    0.0027   -0.0225   -0.0022    0.0013  -45.8778 -127.0928    0.0010    84    85    86     0
    86    0.0021   -0.0232   -0.0031    0.0013  -45.8778 -127.0928    0.0010    85    86    87     0
    87    0.0016   -0.0239   -0.0040    0.0013  -45.8778 -127.0928    0.0010    86    87    88     0
    88    0.0011   -0.0246   -0.0049    0.0013  -45.8778 -127.0928    0.0010    87    88    89     0
    89    0.0006   -0.0253   -0.0058    0.0013  -45.8778 -127.0928    0.0010    88    89    90     0
    90    0.0000   -0.0260   -0.0067    0.0013  -45.8778 -127.0928    0.0010    89    90    91     0
    91   -0.0005   -0.0267   -0.0076    0.0013  -45.8778 -127.0928    0.0010    90    91    92     0
    92   -0.0010   -0.0274   -0.0085    0.0013  -45.8778 -127.0928    0.0010    91    92    93     0
    93   -0.0015   -0.0281   -0.0094    0.0013  -45.8778 -127.0928    0.0010    92    93    94     0
    94   -0.0021   -0.0288   -0.0103    0.0013  -45.8778 -127.0928    0.0010    93    94    95     0
    95   -0.0026   -0.0295   -0.0112    0.0013  -45.8778 -127.0928    0.0010    94    95    96     0
    96   -0.0031   -0.0302   -0.0121    0.0013  -45.8778 -127.0928    0.0010    95    96    97     0
    97   -0.0036   -0.0309   -0.0130    0.0013  -45.8778 -127.0928    0.0010    96    97    98     0
    98   -0.0042   -0.0316   -0.0139    0.0013  -45.8778 -127.0928    0.0010    97    98    99     0
    99   -0.0047   -0.0323   -0.0148    0.0013  -45.8778 -127.0928    0.0010    98    99   100     0
   100   -0.0052   -0.0330   -0.0157    0.0013  -45.8778 -127.0928    0.0010    99   100   101     0
   101   -0.0057   -0.0337   -0.0166    0.0013  -45.8778 -127.0928    0.0010   100   101     0     0
   102    0.0009   -0.0430   -0.0394    0.0013   80.4798 -153.4349    0.0010     0   102   103     0
   103    0.0007   -0.0431   -0.0381    0.0013   80.4798 -153.4349    0.0010   102   103   104     0
   104    0.0005   -0.0432   -0.0369    0.0013   80.4798 -153.4349    0.0010   103   104   105     0
   105    0.0003   -0.0433   -0.0356    0.0013   80.4798 -153.4349    0.0010   104   105   106     0
   106    0.0002   -0.0434   -0.0344    0.0013   80.4798 -153.4349    0.0010   105   106   107     0
   107   -0.0000   -0.0435   -0.0331    0.0013   80.4798 -153.4349    0.0010   106   107   108     0
   108   -0.0002   -0.0436   -0.0319    0.0013   80.4798 -153.4349    0.0010   107   108   109     0
   109   -0.0004   -0.0437   -0.0306    0.0013   80.4798 -153.4349    0.0010   108   109   110     0
   110   -0.0006   -0.0438   -0.0294    0.0013   80.4798 -153.4349    0.0010   109   110   111     0
   111   -0.0008   -0.0439   -0.0281    0.0013   80.4798 -153.4349    0.0010   110   111   112     0
   112   -0.0010   -0.0440   -0.0269    0.0013   80.4798 -153.4349    0.0010   111   112   113     0
   113   -0.0012   -0.0441   -0.0256    0.0013   80.4798 -153.4349    0.0010   112   113   114     0
   114   -0.0013   -0.0442   -0.0244    0.0013   80.4798 -153.4349    0.0010   113   114   115     0
   115   -0.0015   -0.0443   -0.0231    0.0013   80.4798 -153.4349    0.0010   114   115   116     0
   116   -0.0017   -0.0444   -0.0219    0.0013   80.4798 -153.4349    0.0010   115   116   117     0
   117   -0.0019   -0.0445   -0.0206    0.0013   80.4798 -153.4349    0.0010   116   117   118     0
   118   -0.0021   -0.0445   -0.0194    0.0013   80.4798 -153.4349    0.0010   117   118   119     0
   119   -0.0023   -0.0446   -0.0181    0.0013   80.4798 -153.4349    0.0010   118   119   120     0
   120   -0.0025   -0.0447   -0.0169    0.0013   80.4798 -153.4349    0.0010   119   120   121     0
   121   -0.0027   -0.0448   -0.0156    0.0013   80.4798 -153.4349    0.0010   120   121   122     0
   122   -0.0028   -0.0449   -0.0144    0.0013   80.4798 -153.4349    0.0010   121   122   123     0
   123   -0.0030   -0.0450   -0.0131    0.0013   80.4798 -153.4349    0.0010   122   123   124     0
   124   -0.0032   -0.0451   -0.0119    0.0013   80.4798 -153.4349    0.0010   123   124   125     0
   125   -0.0034   -0.0452   -0.0106    0.0013   80.4798 -153.4349    0.0010   124   125   126     0
   126   -0.0036   -0.0453   -0.0094    0.0013   80.4798 -153.4349    0.0010   125   126   127     0
   127   -0.0038   -0.0454   -0.0081    0.0013   80.4798 -153.4349    0.0010   126   127   128     0
   128   -0.0040   -0.0455   -0.0069    0.0013   80.4798 -153.4349    0.0010   127   128   129     0
   129   -0.0042   -0.0456   -0.0056    0.0013   80.4798 -153.4349    0.0010   128   129   130     0
   130   -0.0043   -0.0457   -0.0044    0.0013   80.4798 -153.4349    0.0010   129   130   131     0
   131   -0.0045   -0.0458   -0.0031    0.0013   80.4798 -153.4349    0.0010   130   131   132     0
   132   -0.0047   -0.0459   -0.0019    0.0013   80.4798 -153.4349    0.0010   131   132   133     0
   133   -0.0049   -0.0460   -0.0006    0.0013   80.4798 -153.4349    0.0010   132   133   134     0
   134   -0.0051   -0.0460    0.0006    0.0013   80.4798 -153.4349    0.0010   133   134   135     0
   135   -0.0053   -0.0461    0.0019    0.0013   80.4798 -153.4349    0.0010   134   135   136     0
   136   -0.0055   -0.0462    0.0031    0.0013   80.4798 -153.4349    0.0010   135   136   137     0
   137   -0.0057   -0.0463    0.0044    0.0013   80.4798 -153.4349    0.0010   136   137   138     0
   138   -0.0058   -0.0464    0.0056    0.0013   80.4798 -153.4349    0.0010   137   138   139     0
   139   -0.0060   -0.0465    0.0069    0.0013   80.4798 -153.4349    0.0010   138   139   140     0
   140   -0.0062   -0.0466    0.0081    0.0013   80.4798 -153.4349    0.0010   139   140   141     0
   141   -0.0064   -0.0467    0.0094    0.0013   80.4798 -153.4349    0.0010   140   141   142     0
   142   -0.0066   -0.0468    0.0106    0.0013   80.4798 -153.4349    0.0010   141   142   143     0
   143   -0.0068   -0.0469    0.0119    0.0013   80.4798 -153.4349    0.0010   142   143   144     0
   144   -0.0070   -0.0470    0.0131    0.0013   80.4798 -153.4349    0.0010   143   144   145     0
   145   -0.0072   -0.0471    0.0144    0.0013   80.4798 -153.4349    0.0010   144   145   146     0
   146   -0.0073   -0.0472    0.0156    0.0013   80.4798 -153.4349    0.0010   145   146   147     0
   147   -0.0075   -0.0473    0.0169    0.0013   80.4798 -153.4349    0.0010   146   147   148     0
   148   -0.0077   -0.0474    0.0181    0.0013   80.4798 -153.4349    0.0010   147   148   149     0
   149   -0.0079   -0.0475    0.0194    0.0013   80.4798 -153.4349    0.0010   148   149   150     0
   150   -0.0081   -0.0475    0.0206    0.0013   80.4798 -153.4349    0.0010   149   150   151     0
   151   -0.0083   -0.0476    0.0219    0.0013   80.4798 -153.4349    0.0010   150   151   152     0
   152   -0.0085   -0.0477    0.0231    0.0013   80.4798 -153.4349    0.0010   151   152   153     0
   153   -0.0087   -0.0478    0.0244    0.0013   80.4798 -153.4349    0.0010   152   153   154     0
   154   -0.0088   -0.0479    0.0256    0.0013   80.4798 -153.4349    0.0010   153   154   155     0
   155   -0.0090   -0.0480    0.0269    0.0013   80.4798 -153.4349    0.0010   154   155   156     0
   156   -0.0092   -0.0481    0.0281    0.0013   80.4798 -153.4349    0.0010   155   156   157     0
   157   -0.0094   -0.0482    0.0294    0.0013   80.4798 -153.4349    0.0010   156   157   158     0
   158   -0.0096   -0.0483    0.0306    0.0013   80.4798 -153.4349    0.0010   157   158   159     0
   159   -0.0098   -0.0484    0.0319    0.0013   80.4798 -153.4349    0.0010   158   159   160     0
   160   -0.0100   -0.0485    0.0331    0.0013   80.4798 -153.4349    0.0010   159   160   161     0
   161   -0.0102   -0.0486    0.0344    0.0013   80.4798 -153.4349    0.0010   160   161   162     0
   162   -0.0103   -0.0487    0.0356    0.0013   80.4798 -153.4349    0.0010   161   162   163     0
   163   -0.0105   -0.0488    0.0369    0.0013   80.4798 -153.4349    0.0010   162   163   164     0
   164   -0.0107   -0.0489    0.0381    0.0013   80.4798 -153.4349    0.0010   163   164   165     0
   165   -0.0109   -0.0490    0.0394    0.0013   80.4798 -153.4349    0.0010   164   165     0     0



*****  DATA CARD N0.   1 GN  -1     0     0     0  0.00000E+00  0.00000E+00  0.00000E+00  0.00000E+00  0.00000E+00  0.00000E+00
*****  DATA CARD N0.   2 LD   5     0     0     0  3.72000E+07  0.00000E+00  0.00000E+00  0.00000E+00  0.00000E+00  0.00000E+00
*****  DATA CARD N0.   3 FR   0     1     0     0  2.40000E+03  0.00000E+00  0.00000E+00  0.00000E+00  0.00000E+00  0.00000E+00
*****  DATA CARD N0.   4 PT  -1     0     0     0  0.00000E+00  0.00000E+00  0.00000E+00  0.00000E+00  0.00000E+00  0.00000E+00
*****  DATA CARD N0.   5 EX   1     1     1     0  9.00000E+01  2.25000E+01  0.00000E+00  0.00000E+00  0.00000E+00  0.00000E+00
*****  DATA CARD N0.   6 RP   0     1     1   500  9.00000E+01  1.57500E+02  0.00000E+00  0.00000E+00  0.00000E+00  0.00000E+00


                               --------- FREQUENCY --------
                               FREQUENCY=  2.4000E+03 MHZ
                               WAVELENGTH= 1.2492E-01 METERS


                        APPROXIMATE INTEGRATION EMPLOYED FOR SEGMENTS
                        THAT ARE MORE THAN 1.000 WAVELENGTHS APART



                          ------ STRUCTURE IMPEDANCE LOADING ------

  LOCATION        RESISTANCE  INDUCTANCE  CAPACITANCE     IMPEDANCE (OHMS)   CONDUCTIVITY  CIRCUIT
  ITAG FROM THRU     OHMS       HENRYS      FARADS       REAL     IMAGINARY   MHOS/METER      TYPE
  ALL                                                                        3.7200E+07     WIRE  


                            -------- ANTENNA ENVIRONMENT --------

                            FREE SPACE


                             ---------- MATRIX TIMING ----------
                               FILL= 90 msec  FACTOR: 20 msec


                             ---------- EXCITATION ----------
  PLANE WAVE - THETA:   90.00 deg, PHI:   22.50 deg, ETA=   0.00 DEG, TYPE - LINEAR  AXIAL RATIO:  0.000


                             ---------- RADIATION PATTERNS -----------

 ---- ANGLES -----     ----- POWER GAINS -----       ---- POLARIZATION ----   ---- E(THETA) ----    ----- E(PHI) ------
  THETA      PHI       MAJOR    MINOR    TOTAL       AXIAL      TILT  SENSE   MAGNITUDE    PHASE    MAGNITUDE     PHASE
 DEGREES   DEGREES        DB       DB       DB       RATIO   DEGREES            VOLTS/M   DEGREES     VOLTS/M   DEGREES
   90.00    157.50     -4.03   -17.95    -3.86      0.2013     37.93  RIGHT  1.7689E-02    168.67  1.4064E-02    145.27


                              ---------- NORMALIZED GAIN ----------
                                            TOTAL  GAIN
                                   NORMALIZATION FACTOR: -3.86 db

    ---- ANGLES ----                ---- ANGLES ----                ---- ANGLES ----
    THETA      PHI        GAIN      THETA      PHI        GAIN      THETA      PHI       GAIN
   DEGREES   DEGREES        DB     DEGREES   DEGREES        DB     DEGREES   DEGREES       DB
     90.00    157.50      0.00   



*****  DATA CARD N0.   7 EN   0     0     0     0  0.00000E+00  0.00000E+00  0.00000E+00  0.00000E+00  0.00000E+00  0.00000E+00

  TOTAL RUN TIME: 110 msec