


                                __________________________________________
                               |                                          |
                               | NUMERICAL ELECTROMAGNETICS CODE (nec2++) |
                               | Translated to 'C++' in Double Precision  |
                               |              Version 1.0.4 [2004-11-23]              |
                               |__________________________________________|



                               ---------------- COMMENTS ----------------
                                GA - NEC FILE
                                go blue ! 



                                -------- STRUCTURE SPECIFICATION --------
                                COORDINATES MUST BE INPUT IN
                                METERS OR BE SCALED TO METERS
                                BEFORE STRUCTURE INPUT IS ENDED
  WIRE                                                                                 SEG FIRST  LAST  TAG
   No:        X1         Y1         Z1         X2         Y2         Z2       RADIUS   No:   SEG   SEG  No:

     1      5.7900     3.5800     7.2100     8.9900     1.7400     0.8000     0.5400   640     1   640    0

     GROUND PLANE SPECIFIED.
     WHERE WIRE ENDS TOUCH GROUND, CURRENT WILL BE INTERPOLATED TO IMAGE IN GROUND PLANE.


     TOTAL SEGMENTS USED: 640   SEGMENTS IN A SYMMETRIC CELL: 640   SYMMETRY FLAG: 0


                               ---------- SEGMENTATION DATA ----------
                                        COORDINATES IN METERS
                            I+ AND I- INDICATE THE SEGMENTS BEFORE AND AFTER I

   SEG    COORDINATES OF SEGM CENTER     SEGM    ORIENTATION ANGLES    WIRE    CONNECTION DATA   TAG
   No:       X         Y         Z      LENGTH     ALPHA      BETA    RADIUS    I-     I    I+   NO:
     1    5.7925    3.5786    7.2050    0.0116  -60.0639  -29.8989    0.5400     0     1     2     0
     2    5.7975    3.5757    7.1950    0.0116  -60.0639  -29.8989    0.5400     1     2     3     0
     3    5.8025    3.5728    7.1850    0.0116  -60.0639  -29.8989    0.5400     2     3     4     0
     4    5.8075    3.5699    7.1749    0.0116  -60.0639  -29.8989    0.5400     3     4     5     0
     5    5.8125    3.5671    7.1649    0.0116  -60.0639  -29.8989    0.5400     4     5     6     0
     6    5.8175    3.5642    7.1549    0.0116  -60.0639  -29.8989    0.5400     5     6     7     0
     7    5.8225    3.5613    7.1449    0.0116  -60.0639  -29.8989    0.5400     6     7     8     0
     8    5.8275    3.5584    7.1349    0.0116  -60.0639  -29.8989    0.5400     7     8     9     0
     9    5.8325    3.5556    7.1249    0.0116  -60.0639  -29.8989    0.5400     8     9    10     0
    10    5.8375    3.5527    7.1149    0.0116  -60.0639  -29.8989    0.5400     9    10    11     0
    11    5.8425    3.5498    7.1048    0.0116  -60.0639  -29.8989    0.5400    10    11    12     0
    12    5.8475    3.5469    7.0948    0.0116  -60.0639  -29.8989    0.5400    11    12    13     0
    13    5.8525    3.5441    7.0848    0.0116  -60.0639  -29.8989    0.5400    12    13    14     0
    14    5.8575    3.5412    7.0748    0.0116  -60.0639  -29.8989    0.5400    13    14    15     0
    15    5.8625    3.5383    7.0648    0.0116  -60.0639  -29.8989    0.5400    14    15    16     0
    16    5.8675    3.5354    7.0548    0.0116  -60.0639  -29.8989    0.5400    15    16    17     0
    17    5.8725    3.5326    7.0447    0.0116  -60.0639  -29.8989    0.5400    16    17    18     0
    18    5.8775    3.5297    7.0347    0.0116  -60.0639  -29.8989    0.5400    17    18    19     0
    19    5.8825    3.5268    7.0247    0.0116  -60.0639  -29.8989    0.5400    18    19    20     0
    20    5.8875    3.5239    7.0147    0.0116  -60.0639  -29.8989    0.5400    19    20    21     0
    21    5.8925    3.5211    7.0047    0.0116  -60.0639  -29.8989    0.5400    20    21    22     0
    22    5.8975    3.5182    6.9947    0.0116  -60.0639  -29.8989    0.5400    21    22    23     0
    23    5.9025    3.5153    6.9846    0.0116  -60.0639  -29.8989    0.5400    22    23    24     0
    24    5.9075    3.5124    6.9746    0.0116  -60.0639  -29.8989    0.5400    23    24    25     0
    25    5.9125    3.5096    6.9646    0.0116  -60.0639  -29.8989    0.5400    24    25    26     0
    26    5.9175    3.5067    6.9546    0.0116  -60.0639  -29.8989    0.5400    25    26    27     0
    27    5.9225    3.5038    6.9446    0.0116  -60.0639  -29.8989    0.5400    26    27    28     0
    28    5.9275    3.5009    6.9346    0.0116  -60.0639  -29.8989    0.5400    27    28    29     0
    29    5.9325    3.4981    6.9246    0.0116  -60.0639  -29.8989    0.5400    28    29    30     0
    30    5.9375    3.4952    6.9145    0.0116  -60.0639  -29.8989    0.5400    29    30    31     0
    31    5.9425    3.4923    6.9045    0.0116  -60.0639  -29.8989    0.5400    30    31    32     0
    32    5.9475    3.4894    6.8945    0.0116  -60.0639  -29.8989    0.5400    31    32    33     0
    33    5.9525    3.4866    6.8845    0.0116  -60.0639  -29.8989    0.5400    32    33    34     0
    34    5.9575    3.4837    6.8745    0.0116  -60.0639  -29.8989    0.5400    33    34    35     0
    35    5.9625    3.4808    6.8645    0.0116  -60.0639  -29.8989    0.5400    34    35    36     0
    36    5.9675    3.4779    6.8544    0.0116  -60.0639  -29.8989    0.5400    35    36    37     0
    37    5.9725    3.4751    6.8444    0.0116  -60.0639  -29.8989    0.5400    36    37    38     0
    38    5.9775    3.4722    6.8344    0.0116  -60.0639  -29.8989    0.5400    37    38    39     0
    39    5.9825    3.4693    6.8244    0.0116  -60.0639  -29.8989    0.5400    38    39    40     0
    40    5.9875    3.4664    6.8144    0.0116  -60.0639  -29.8989    0.5400    39    40    41     0
    41    5.9925    3.4636    6.8044    0.0116  -60.0639  -29.8989    0.5400    40    41    42     0
    42    5.9975    3.4607    6.7944    0.0116  -60.0639  -29.8989    0.5400    41    42    43     0
    43    6.0025    3.4578    6.7843    0.0116  -60.0639  -29.8989    0.5400    42    43    44     0
    44    6.0075    3.4549    6.7743    0.0116  -60.0639  -29.8989    0.5400    43    44    45     0
    45    6.0125    3.4521    6.7643    0.0116  -60.0639  -29.8989    0.5400    44    45    46     0
    46    6.0175    3.4492    6.7543    0.0116  -60.0639  -29.8989    0.5400    45    46    47     0
    47    6.0225    3.4463    6.7443    0.0116  -60.0639  -29.8989    0.5400    46    47    48     0
    48    6.0275    3.4434    6.7343    0.0116  -60.0639  -29.8989    0.5400    47    48    49     0
    49    6.0325    3.4406    6.7242    0.0116  -60.0639  -29.8989    0.5400    48    49    50     0
    50    6.0375    3.4377    6.7142    0.0116  -60.0639  -29.8989    0.5400    49    50    51     0
    51    6.0425    3.4348    6.7042    0.0116  -60.0639  -29.8989    0.5400    50    51    52     0
    52    6.0475    3.4319    6.6942    0.0116  -60.0639  -29.8989    0.5400    51    52    53     0
    53    6.0525    3.4291    6.6842    0.0116  -60.0639  -29.8989    0.5400    52    53    54     0
    54    6.0575    3.4262    6.6742    0.0116  -60.0639  -29.8989    0.5400    53    54    55     0
    55    6.0625    3.4233    6.6641    0.0116  -60.0639  -29.8989    0.5400    54    55    56     0
    56    6.0675    3.4204    6.6541    0.0116  -60.0639  -29.8989    0.5400    55    56    57     0
    57    6.0725    3.4176    6.6441    0.0116  -60.0639  -29.8989    0.5400    56    57    58     0
    58    6.0775    3.4147    6.6341    0.0116  -60.0639  -29.8989    0.5400    57    58    59     0
    59    6.0825    3.4118    6.6241    0.0116  -60.0639  -29.8989    0.5400    58    59    60     0
    60    6.0875    3.4089    6.6141    0.0116  -60.0639  -29.8989    0.5400    59    60    61     0
    61    6.0925    3.4061    6.6041    0.0116  -60.0639  -29.8989    0.5400    60    61    62     0
    62    6.0975    3.4032    6.5940    0.0116  -60.0639  -29.8989    0.5400    61    62    63     0
    63    6.1025    3.4003    6.5840    0.0116  -60.0639  -29.8989    0.5400    62    63    64     0
    64    6.1075    3.3974    6.5740    0.0116  -60.0639  -29.8989    0.5400    63    64    65     0
    65    6.1125    3.3946    6.5640    0.0116  -60.0639  -29.8989    0.5400    64    65    66     0
    66    6.1175    3.3917    6.5540    0.0116  -60.0639  -29.8989    0.5400    65    66    67     0
    67    6.1225    3.3888    6.5440    0.0116  -60.0639  -29.8989    0.5400    66    67    68     0
    68    6.1275    3.3859    6.5339    0.0116  -60.0639  -29.8989    0.5400    67    68    69     0
    69    6.1325    3.3831    6.5239    0.0116  -60.0639  -29.8989    0.5400    68    69    70     0
    70    6.1375    3.3802    6.5139    0.0116  -60.0639  -29.8989    0.5400    69    70    71     0
    71    6.1425    3.3773    6.5039    0.0116  -60.0639  -29.8989    0.5400    70    71    72     0
    72    6.1475    3.3744    6.4939    0.0116  -60.0639  -29.8989    0.5400    71    72    73     0
    73    6.1525    3.3716    6.4839    0.0116  -60.0639  -29.8989    0.5400    72    73    74     0
    74    6.1575    3.3687    6.4739    0.0116  -60.0639  -29.8989    0.5400    73    74    75     0
    75    6.1625    3.3658    6.4638    0.0116  -60.0639  -29.8989    0.5400    74    75    76     0
    76    6.1675    3.3629    6.4538    0.0116  -60.0639  -29.8989    0.5400    75    76    77     0
    77    6.1725    3.3601    6.4438    0.0116  -60.0639  -29.8989    0.5400    76    77    78     0
    78    6.1775    3.3572    6.4338    0.0116  -60.0639  -29.8989    0.5400    77    78    79     0
    79    6.1825    3.3543    6.4238    0.0116  -60.0639  -29.8989    0.5400    78    79    80     0
    80    6.1875    3.3514    6.4138    0.0116  -60.0639  -29.8989    0.5400    79    80    81     0
    81    6.1925    3.3486    6.4037    0.0116  -60.0639  -29.8989    0.5400    80    81    82     0
    82    6.1975    3.3457    6.3937    0.0116  -60.0639  -29.8989    0.5400    81    82    83     0
    83    6.2025    3.3428    6.3837    0.0116  -60.0639  -29.8989    0.5400    82    83    84     0
    84    6.2075    3.3399    6.3737    0.0116  -60.0639  -29.8989    0.5400    83    84    85     0
    85    6.2125    3.3371    6.3637    0.0116  -60.0639  -29.8989    0.5400    84    85    86     0
    86    6.2175    3.3342    6.3537    0.0116  -60.0639  -29.8989    0.5400    85    86    87     0
    87    6.2225    3.3313    6.3436    0.0116  -60.0639  -29.8989    0.5400    86    87    88     0
    88    6.2275    3.3284    6.3336    0.0116  -60.0639  -29.8989    0.5400    87    88    89     0
    89    6.2325    3.3256    6.3236    0.0116  -60.0639  -29.8989    0.5400    88    89    90     0
    90    6.2375    3.3227    6.3136    0.0116  -60.0639  -29.8989    0.5400    89    90    91     0
    91    6.2425    3.3198    6.3036    0.0116  -60.0639  -29.8989    0.5400    90    91    92     0
    92    6.2475    3.3169    6.2936    0.0116  -60.0639  -29.8989    0.5400    91    92    93     0
    93    6.2525    3.3141    6.2836    0.0116  -60.0639  -29.8989    0.5400    92    93    94     0
    94    6.2575    3.3112    6.2735    0.0116  -60.0639  -29.8989    0.5400    93    94    95     0
    95    6.2625    3.3083    6.2635    0.0116  -60.0639  -29.8989    0.5400    94    95    96     0
    96    6.2675    3.3054    6.2535    0.0116  -60.0639  -29.8989    0.5400    95    96    97     0
    97    6.2725    3.3026    6.2435    0.0116  -60.0639  -29.8989    0.5400    96    97    98     0
    98    6.2775    3.2997    6.2335    0.0116  -60.0639  -29.8989    0.5400    97    98    99     0
    99    6.2825    3.2968    6.2235    0.0116  -60.0639  -29.8989    0.5400    98    99   100     0
   100    6.2875    3.2939    6.2134    0.0116  -60.0639  -29.8989    0.5400    99   100   101     0
   101    6.2925    3.2911    6.2034    0.0116  -60.0639  -29.8989    0.5400   100   101   102     0
   102    6.2975    3.2882    6.1934    0.0116  -60.0639  -29.8989    0.5400   101   102   103     0
   103    6.3025    3.2853    6.1834    0.0116  -60.0639  -29.8989    0.5400   102   103   104     0
   104    6.3075    3.2824    6.1734    0.0116  -60.0639  -29.8989    0.5400   103   104   105     0
   105    6.3125    3.2796    6.1634    0.0116  -60.0639  -29.8989    0.5400   104   105   106     0
   106    6.3175    3.2767    6.1534    0.0116  -60.0639  -29.8989    0.5400   105   106   107     0
   107    6.3225    3.2738    6.1433    0.0116  -60.0639  -29.8989    0.5400   106   107   108     0
   108    6.3275    3.2709    6.1333    0.0116  -60.0639  -29.8989    0.5400   107   108   109     0
   109    6.3325    3.2681    6.1233    0.0116  -60.0639  -29.8989    0.5400   108   109   110     0
   110    6.3375    3.2652    6.1133    0.0116  -60.0639  -29.8989    0.5400   109   110   111     0
   111    6.3425    3.2623    6.1033    0.0116  -60.0639  -29.8989    0.5400   110   111   112     0
   112    6.3475    3.2594    6.0933    0.0116  -60.0639  -29.8989    0.5400   111   112   113     0
   113    6.3525    3.2566    6.0832    0.0116  -60.0639  -29.8989    0.5400   112   113   114     0
   114    6.3575    3.2537    6.0732    0.0116  -60.0639  -29.8989    0.5400   113   114   115     0
   115    6.3625    3.2508    6.0632    0.0116  -60.0639  -29.8989    0.5400   114   115   116     0
   116    6.3675    3.2479    6.0532    0.0116  -60.0639  -29.8989    0.5400   115   116   117     0
   117    6.3725    3.2451    6.0432    0.0116  -60.0639  -29.8989    0.5400   116   117   118     0
   118    6.3775    3.2422    6.0332    0.0116  -60.0639  -29.8989    0.5400   117   118   119     0
   119    6.3825    3.2393    6.0231    0.0116  -60.0639  -29.8989    0.5400   118   119   120     0
   120    6.3875    3.2364    6.0131    0.0116  -60.0639  -29.8989    0.5400   119   120   121     0
   121    6.3925    3.2336    6.0031    0.0116  -60.0639  -29.8989    0.5400   120   121   122     0
   122    6.3975    3.2307    5.9931    0.0116  -60.0639  -29.8989    0.5400   121   122   123     0
   123    6.4025    3.2278    5.9831    0.0116  -60.0639  -29.8989    0.5400   122   123   124     0
   124    6.4075    3.2249    5.9731    0.0116  -60.0639  -29.8989    0.5400   123   124   125     0
   125    6.4125    3.2221    5.9631    0.0116  -60.0639  -29.8989    0.5400   124   125   126     0
   126    6.4175    3.2192    5.9530    0.0116  -60.0639  -29.8989    0.5400   125   126   127     0
   127    6.4225    3.2163    5.9430    0.0116  -60.0639  -29.8989    0.5400   126   127   128     0
   128    6.4275    3.2134    5.9330    0.0116  -60.0639  -29.8989    0.5400   127   128   129     0
   129    6.4325    3.2106    5.9230    0.0116  -60.0639  -29.8989    0.5400   128   129   130     0
   130    6.4375    3.2077    5.9130    0.0116  -60.0639  -29.8989    0.5400   129   130   131     0
   131    6.4425    3.2048    5.9030    0.0116  -60.0639  -29.8989    0.5400   130   131   132     0
   132    6.4475    3.2019    5.8929    0.0116  -60.0639  -29.8989    0.5400   131   132   133     0
   133    6.4525    3.1991    5.8829    0.0116  -60.0639  -29.8989    0.5400   132   133   134     0
   134    6.4575    3.1962    5.8729    0.0116  -60.0639  -29.8989    0.5400   133   134   135     0
   135    6.4625    3.1933    5.8629    0.0116  -60.0639  -29.8989    0.5400   134   135   136     0
   136    6.4675    3.1904    5.8529    0.0116  -60.0639  -29.8989    0.5400   135   136   137     0
   137    6.4725    3.1876    5.8429    0.0116  -60.0639  -29.8989    0.5400   136   137   138     0
   138    6.4775    3.1847    5.8329    0.0116  -60.0639  -29.8989    0.5400   137   138   139     0
   139    6.4825    3.1818    5.8228    0.0116  -60.0639  -29.8989    0.5400   138   139   140     0
   140    6.4875    3.1789    5.8128    0.0116  -60.0639  -29.8989    0.5400   139   140   141     0
   141    6.4925    3.1761    5.8028    0.0116  -60.0639  -29.8989    0.5400   140   141   142     0
   142    6.4975    3.1732    5.7928    0.0116  -60.0639  -29.8989    0.5400   141   142   143     0
   143    6.5025    3.1703    5.7828    0.0116  -60.0639  -29.8989    0.5400   142   143   144     0
   144    6.5075    3.1674    5.7728    0.0116  -60.0639  -29.8989    0.5400   143   144   145     0
   145    6.5125    3.1646    5.7627    0.0116  -60.0639  -29.8989    0.5400   144   145   146     0
   146    6.5175    3.1617    5.7527    0.0116  -60.0639  -29.8989    0.5400   145   146   147     0
   147    6.5225    3.1588    5.7427    0.0116  -60.0639  -29.8989    0.5400   146   147   148     0
   148    6.5275    3.1559    5.7327    0.0116  -60.0639  -29.8989    0.5400   147   148   149     0
   149    6.5325    3.1531    5.7227    0.0116  -60.0639  -29.8989    0.5400   148   149   150     0
   150    6.5375    3.1502    5.7127    0.0116  -60.0639  -29.8989    0.5400   149   150   151     0
   151    6.5425    3.1473    5.7026    0.0116  -60.0639  -29.8989    0.5400   150   151   152     0
   152    6.5475    3.1444    5.6926    0.0116  -60.0639  -29.8989    0.5400   151   152   153     0
   153    6.5525    3.1416    5.6826    0.0116  -60.0639  -29.8989    0.5400   152   153   154     0
   154    6.5575    3.1387    5.6726    0.0116  -60.0639  -29.8989    0.5400   153   154   155     0
   155    6.5625    3.1358    5.6626    0.0116  -60.0639  -29.8989    0.5400   154   155   156     0
   156    6.5675    3.1329    5.6526    0.0116  -60.0639  -29.8989    0.5400   155   156   157     0
   157    6.5725    3.1301    5.6426    0.0116  -60.0639  -29.8989    0.5400   156   157   158     0
   158    6.5775    3.1272    5.6325    0.0116  -60.0639  -29.8989    0.5400   157   158   159     0
   159    6.5825    3.1243    5.6225    0.0116  -60.0639  -29.8989    0.5400   158   159   160     0
   160    6.5875    3.1214    5.6125    0.0116  -60.0639  -29.8989    0.5400   159   160   161     0
   161    6.5925    3.1186    5.6025    0.0116  -60.0639  -29.8989    0.5400   160   161   162     0
   162    6.5975    3.1157    5.5925    0.0116  -60.0639  -29.8989    0.5400   161   162   163     0
   163    6.6025    3.1128    5.5825    0.0116  -60.0639  -29.8989    0.5400   162   163   164     0
   164    6.6075    3.1099    5.5724    0.0116  -60.0639  -29.8989    0.5400   163   164   165     0
   165    6.6125    3.1071    5.5624    0.0116  -60.0639  -29.8989    0.5400   164   165   166     0
   166    6.6175    3.1042    5.5524    0.0116  -60.0639  -29.8989    0.5400   165   166   167     0
   167    6.6225    3.1013    5.5424    0.0116  -60.0639  -29.8989    0.5400   166   167   168     0
   168    6.6275    3.0984    5.5324    0.0116  -60.0639  -29.8989    0.5400   167   168   169     0
   169    6.6325    3.0956    5.5224    0.0116  -60.0639  -29.8989    0.5400   168   169   170     0
   170    6.6375    3.0927    5.5124    0.0116  -60.0639  -29.8989    0.5400   169   170   171     0
   171    6.6425    3.0898    5.5023    0.0116  -60.0639  -29.8989    0.5400   170   171   172     0
   172    6.6475    3.0869    5.4923    0.0116  -60.0639  -29.8989    0.5400   171   172   173     0
   173    6.6525    3.0841    5.4823    0.0116  -60.0639  -29.8989    0.5400   172   173   174     0
   174    6.6575    3.0812    5.4723    0.0116  -60.0639  -29.8989    0.5400   173   174   175     0
   175    6.6625    3.0783    5.4623    0.0116  -60.0639  -29.8989    0.5400   174   175   176     0
   176    6.6675    3.0754    5.4523    0.0116  -60.0639  -29.8989    0.5400   175   176   177     0
   177    6.6725    3.0726    5.4422    0.0116  -60.0639  -29.8989    0.5400   176   177   178     0
   178    6.6775    3.0697    5.4322    0.0116  -60.0639  -29.8989    0.5400   177   178   179     0
   179    6.6825    3.0668    5.4222    0.0116  -60.0639  -29.8989    0.5400   178   179   180     0
   180    6.6875    3.0639    5.4122    0.0116  -60.0639  -29.8989    0.5400   179   180   181     0
   181    6.6925    3.0611    5.4022    0.0116  -60.0639  -29.8989    0.5400   180   181   182     0
   182    6.6975    3.0582    5.3922    0.0116  -60.0639  -29.8989    0.5400   181   182   183     0
   183    6.7025    3.0553    5.3821    0.0116  -60.0639  -29.8989    0.5400   182   183   184     0
   184    6.7075    3.0524    5.3721    0.0116  -60.0639  -29.8989    0.5400   183   184   185     0
   185    6.7125    3.0496    5.3621    0.0116  -60.0639  -29.8989    0.5400   184   185   186     0
   186    6.7175    3.0467    5.3521    0.0116  -60.0639  -29.8989    0.5400   185   186   187     0
   187    6.7225    3.0438    5.3421    0.0116  -60.0639  -29.8989    0.5400   186   187   188     0
   188    6.7275    3.0409    5.3321    0.0116  -60.0639  -29.8989    0.5400   187   188   189     0
   189    6.7325    3.0381    5.3221    0.0116  -60.0639  -29.8989    0.5400   188   189   190     0
   190    6.7375    3.0352    5.3120    0.0116  -60.0639  -29.8989    0.5400   189   190   191     0
   191    6.7425    3.0323    5.3020    0.0116  -60.0639  -29.8989    0.5400   190   191   192     0
   192    6.7475    3.0294    5.2920    0.0116  -60.0639  -29.8989    0.5400   191   192   193     0
   193    6.7525    3.0266    5.2820    0.0116  -60.0639  -29.8989    0.5400   192   193   194     0
   194    6.7575    3.0237    5.2720    0.0116  -60.0639  -29.8989    0.5400   193   194   195     0
   195    6.7625    3.0208    5.2620    0.0116  -60.0639  -29.8989    0.5400   194   195   196     0
   196    6.7675    3.0179    5.2519    0.0116  -60.0639  -29.8989    0.5400   195   196   197     0
   197    6.7725    3.0151    5.2419    0.0116  -60.0639  -29.8989    0.5400   196   197   198     0
   198    6.7775    3.0122    5.2319    0.0116  -60.0639  -29.8989    0.5400   197   198   199     0
   199    6.7825    3.0093    5.2219    0.0116  -60.0639  -29.8989    0.5400   198   199   200     0
   200    6.7875    3.0064    5.2119    0.0116  -60.0639  -29.8989    0.5400   199   200   201     0
   201    6.7925    3.0036    5.2019    0.0116  -60.0639  -29.8989    0.5400   200   201   202     0
   202    6.7975    3.0007    5.1919    0.0116  -60.0639  -29.8989    0.5400   201   202   203     0
   203    6.8025    2.9978    5.1818    0.0116  -60.0639  -29.8989    0.5400   202   203   204     0
   204    6.8075    2.9949    5.1718    0.0116  -60.0639  -29.8989    0.5400   203   204   205     0
   205    6.8125    2.9921    5.1618    0.0116  -60.0639  -29.8989    0.5400   204   205   206     0
   206    6.8175    2.9892    5.1518    0.0116  -60.0639  -29.8989    0.5400   205   206   207     0
   207    6.8225    2.9863    5.1418    0.0116  -60.0639  -29.8989    0.5400   206   207   208     0
   208    6.8275    2.9834    5.1318    0.0116  -60.0639  -29.8989    0.5400   207   208   209     0
   209    6.8325    2.9806    5.1217    0.0116  -60.0639  -29.8989    0.5400   208   209   210     0
   210    6.8375    2.9777    5.1117    0.0116  -60.0639  -29.8989    0.5400   209   210   211     0
   211    6.8425    2.9748    5.1017    0.0116  -60.0639  -29.8989    0.5400   210   211   212     0
   212    6.8475    2.9719    5.0917    0.0116  -60.0639  -29.8989    0.5400   211   212   213     0
   213    6.8525    2.9691    5.0817    0.0116  -60.0639  -29.8989    0.5400   212   213   214     0
   214    6.8575    2.9662    5.0717    0.0116  -60.0639  -29.8989    0.5400   213   214   215     0
   215    6.8625    2.9633    5.0616    0.0116  -60.0639  -29.8989    0.5400   214   215   216     0
   216    6.8675    2.9604    5.0516    0.0116  -60.0639  -29.8989    0.5400   215   216   217     0
   217    6.8725    2.9576    5.0416    0.0116  -60.0639  -29.8989    0.5400   216   217   218     0
   218    6.8775    2.9547    5.0316    0.0116  -60.0639  -29.8989    0.5400   217   218   219     0
   219    6.8825    2.9518    5.0216    0.0116  -60.0639  -29.8989    0.5400   218   219   220     0
   220    6.8875    2.9489    5.0116    0.0116  -60.0639  -29.8989    0.5400   219   220   221     0
   221    6.8925    2.9461    5.0016    0.0116  -60.0639  -29.8989    0.5400   220   221   222     0
   222    6.8975    2.9432    4.9915    0.0116  -60.0639  -29.8989    0.5400   221   222   223     0
   223    6.9025    2.9403    4.9815    0.0116  -60.0639  -29.8989    0.5400   222   223   224     0
   224    6.9075    2.9374    4.9715    0.0116  -60.0639  -29.8989    0.5400   223   224   225     0
   225    6.9125    2.9346    4.9615    0.0116  -60.0639  -29.8989    0.5400   224   225   226     0
   226    6.9175    2.9317    4.9515    0.0116  -60.0639  -29.8989    0.5400   225   226   227     0
   227    6.9225    2.9288    4.9415    0.0116  -60.0639  -29.8989    0.5400   226   227   228     0
   228    6.9275    2.9259    4.9314    0.0116  -60.0639  -29.8989    0.5400   227   228   229     0
   229    6.9325    2.9231    4.9214    0.0116  -60.0639  -29.8989    0.5400   228   229   230     0
   230    6.9375    2.9202    4.9114    0.0116  -60.0639  -29.8989    0.5400   229   230   231     0
   231    6.9425    2.9173    4.9014    0.0116  -60.0639  -29.8989    0.5400   230   231   232     0
   232    6.9475    2.9144    4.8914    0.0116  -60.0639  -29.8989    0.5400   231   232   233     0
   233    6.9525    2.9116    4.8814    0.0116  -60.0639  -29.8989    0.5400   232   233   234     0
   234    6.9575    2.9087    4.8714    0.0116  -60.0639  -29.8989    0.5400   233   234   235     0
   235    6.9625    2.9058    4.8613    0.0116  -60.0639  -29.8989    0.5400   234   235   236     0
   236    6.9675    2.9029    4.8513    0.0116  -60.0639  -29.8989    0.5400   235   236   237     0
   237    6.9725    2.9001    4.8413    0.0116  -60.0639  -29.8989    0.5400   236   237   238     0
   238    6.9775    2.8972    4.8313    0.0116  -60.0639  -29.8989    0.5400   237   238   239     0
   239    6.9825    2.8943    4.8213    0.0116  -60.0639  -29.8989    0.5400   238   239   240     0
   240    6.9875    2.8914    4.8113    0.0116  -60.0639  -29.8989    0.5400   239   240   241     0
   241    6.9925    2.8886    4.8012    0.0116  -60.0639  -29.8989    0.5400   240   241   242     0
   242    6.9975    2.8857    4.7912    0.0116  -60.0639  -29.8989    0.5400   241   242   243     0
   243    7.0025    2.8828    4.7812    0.0116  -60.0639  -29.8989    0.5400   242   243   244     0
   244    7.0075    2.8799    4.7712    0.0116  -60.0639  -29.8989    0.5400   243   244   245     0
   245    7.0125    2.8771    4.7612    0.0116  -60.0639  -29.8989    0.5400   244   245   246     0
   246    7.0175    2.8742    4.7512    0.0116  -60.0639  -29.8989    0.5400   245   246   247     0
   247    7.0225    2.8713    4.7411    0.0116  -60.0639  -29.8989    0.5400   246   247   248     0
   248    7.0275    2.8684    4.7311    0.0116  -60.0639  -29.8989    0.5400   247   248   249     0
   249    7.0325    2.8656    4.7211    0.0116  -60.0639  -29.8989    0.5400   248   249   250     0
   250    7.0375    2.8627    4.7111    0.0116  -60.0639  -29.8989    0.5400   249   250   251     0
   251    7.0425    2.8598    4.7011    0.0116  -60.0639  -29.8989    0.5400   250   251   252     0
   252    7.0475    2.8569    4.6911    0.0116  -60.0639  -29.8989    0.5400   251   252   253     0
   253    7.0525    2.8541    4.6811    0.0116  -60.0639  -29.8989    0.5400   252   253   254     0
   254    7.0575    2.8512    4.6710    0.0116  -60.0639  -29.8989    0.5400   253   254   255     0
   255    7.0625    2.8483    4.6610    0.0116  -60.0639  -29.8989    0.5400   254   255   256     0
   256    7.0675    2.8454    4.6510    0.0116  -60.0639  -29.8989    0.5400   255   256   257     0
   257    7.0725    2.8426    4.6410    0.0116  -60.0639  -29.8989    0.5400   256   257   258     0
   258    7.0775    2.8397    4.6310    0.0116  -60.0639  -29.8989    0.5400   257   258   259     0
   259    7.0825    2.8368    4.6210    0.0116  -60.0639  -29.8989    0.5400   258   259   260     0
   260    7.0875    2.8339    4.6109    0.0116  -60.0639  -29.8989    0.5400   259   260   261     0
   261    7.0925    2.8311    4.6009    0.0116  -60.0639  -29.8989    0.5400   260   261   262     0
   262    7.0975    2.8282    4.5909    0.0116  -60.0639  -29.8989    0.5400   261   262   263     0
   263    7.1025    2.8253    4.5809    0.0116  -60.0639  -29.8989    0.5400   262   263   264     0
   264    7.1075    2.8224    4.5709    0.0116  -60.0639  -29.8989    0.5400   263   264   265     0
   265    7.1125    2.8196    4.5609    0.0116  -60.0639  -29.8989    0.5400   264   265   266     0
   266    7.1175    2.8167    4.5509    0.0116  -60.0639  -29.8989    0.5400   265   266   267     0
   267    7.1225    2.8138    4.5408    0.0116  -60.0639  -29.8989    0.5400   266   267   268     0
   268    7.1275    2.8109    4.5308    0.0116  -60.0639  -29.8989    0.5400   267   268   269     0
   269    7.1325    2.8081    4.5208    0.0116  -60.0639  -29.8989    0.5400   268   269   270     0
   270    7.1375    2.8052    4.5108    0.0116  -60.0639  -29.8989    0.5400   269   270   271     0
   271    7.1425    2.8023    4.5008    0.0116  -60.0639  -29.8989    0.5400   270   271   272     0
   272    7.1475    2.7994    4.4908    0.0116  -60.0639  -29.8989    0.5400   271   272   273     0
   273    7.1525    2.7966    4.4807    0.0116  -60.0639  -29.8989    0.5400   272   273   274     0
   274    7.1575    2.7937    4.4707    0.0116  -60.0639  -29.8989    0.5400   273   274   275     0
   275    7.1625    2.7908    4.4607    0.0116  -60.0639  -29.8989    0.5400   274   275   276     0
   276    7.1675    2.7879    4.4507    0.0116  -60.0639  -29.8989    0.5400   275   276   277     0
   277    7.1725    2.7851    4.4407    0.0116  -60.0639  -29.8989    0.5400   276   277   278     0
   278    7.1775    2.7822    4.4307    0.0116  -60.0639  -29.8989    0.5400   277   278   279     0
   279    7.1825    2.7793    4.4206    0.0116  -60.0639  -29.8989    0.5400   278   279   280     0
   280    7.1875    2.7764    4.4106    0.0116  -60.0639  -29.8989    0.5400   279   280   281     0
   281    7.1925    2.7736    4.4006    0.0116  -60.0639  -29.8989    0.5400   280   281   282     0
   282    7.1975    2.7707    4.3906    0.0116  -60.0639  -29.8989    0.5400   281   282   283     0
   283    7.2025    2.7678    4.3806    0.0116  -60.0639  -29.8989    0.5400   282   283   284     0
   284    7.2075    2.7649    4.3706    0.0116  -60.0639  -29.8989    0.5400   283   284   285     0
   285    7.2125    2.7621    4.3606    0.0116  -60.0639  -29.8989    0.5400   284   285   286     0
   286    7.2175    2.7592    4.3505    0.0116  -60.0639  -29.8989    0.5400   285   286   287     0
   287    7.2225    2.7563    4.3405    0.0116  -60.0639  -29.8989    0.5400   286   287   288     0
   288    7.2275    2.7534    4.3305    0.0116  -60.0639  -29.8989    0.5400   287   288   289     0
   289    7.2325    2.7506    4.3205    0.0116  -60.0639  -29.8989    0.5400   288   289   290     0
   290    7.2375    2.7477    4.3105    0.0116  -60.0639  -29.8989    0.5400   289   290   291     0
   291    7.2425    2.7448    4.3005    0.0116  -60.0639  -29.8989    0.5400   290   291   292     0
   292    7.2475    2.7419    4.2904    0.0116  -60.0639  -29.8989    0.5400   291   292   293     0
   293    7.2525    2.7391    4.2804    0.0116  -60.0639  -29.8989    0.5400   292   293   294     0
   294    7.2575    2.7362    4.2704    0.0116  -60.0639  -29.8989    0.5400   293   294   295     0
   295    7.2625    2.7333    4.2604    0.0116  -60.0639  -29.8989    0.5400   294   295   296     0
   296    7.2675    2.7304    4.2504    0.0116  -60.0639  -29.8989    0.5400   295   296   297     0
   297    7.2725    2.7276    4.2404    0.0116  -60.0639  -29.8989    0.5400   296   297   298     0
   298    7.2775    2.7247    4.2304    0.0116  -60.0639  -29.8989    0.5400   297   298   299     0
   299    7.2825    2.7218    4.2203    0.0116  -60.0639  -29.8989    0.5400   298   299   300     0
   300    7.2875    2.7189    4.2103    0.0116  -60.0639  -29.8989    0.5400   299   300   301     0
   301    7.2925    2.7161    4.2003    0.0116  -60.0639  -29.8989    0.5400   300   301   302     0
   302    7.2975    2.7132    4.1903    0.0116  -60.0639  -29.8989    0.5400   301   302   303     0
   303    7.3025    2.7103    4.1803    0.0116  -60.0639  -29.8989    0.5400   302   303   304     0
   304    7.3075    2.7074    4.1703    0.0116  -60.0639  -29.8989    0.5400   303   304   305     0
   305    7.3125    2.7046    4.1602    0.0116  -60.0639  -29.8989    0.5400   304   305   306     0
   306    7.3175    2.7017    4.1502    0.0116  -60.0639  -29.8989    0.5400   305   306   307     0
   307    7.3225    2.6988    4.1402    0.0116  -60.0639  -29.8989    0.5400   306   307   308     0
   308    7.3275    2.6959    4.1302    0.0116  -60.0639  -29.8989    0.5400   307   308   309     0
   309    7.3325    2.6931    4.1202    0.0116  -60.0639  -29.8989    0.5400   308   309   310     0
   310    7.3375    2.6902    4.1102    0.0116  -60.0639  -29.8989    0.5400   309   310   311     0
   311    7.3425    2.6873    4.1001    0.0116  -60.0639  -29.8989    0.5400   310   311   312     0
   312    7.3475    2.6844    4.0901    0.0116  -60.0639  -29.8989    0.5400   311   312   313     0
   313    7.3525    2.6816    4.0801    0.0116  -60.0639  -29.8989    0.5400   312   313   314     0
   314    7.3575    2.6787    4.0701    0.0116  -60.0639  -29.8989    0.5400   313   314   315     0
   315    7.3625    2.6758    4.0601    0.0116  -60.0639  -29.8989    0.5400   314   315   316     0
   316    7.3675    2.6729    4.0501    0.0116  -60.0639  -29.8989    0.5400   315   316   317     0
   317    7.3725    2.6701    4.0401    0.0116  -60.0639  -29.8989    0.5400   316   317   318     0
   318    7.3775    2.6672    4.0300    0.0116  -60.0639  -29.8989    0.5400   317   318   319     0
   319    7.3825    2.6643    4.0200    0.0116  -60.0639  -29.8989    0.5400   318   319   320     0
   320    7.3875    2.6614    4.0100    0.0116  -60.0639  -29.8989    0.5400   319   320   321     0
   321    7.3925    2.6586    4.0000    0.0116  -60.0639  -29.8989    0.5400   320   321   322     0
   322    7.3975    2.6557    3.9900    0.0116  -60.0639  -29.8989    0.5400   321   322   323     0
   323    7.4025    2.6528    3.9800    0.0116  -60.0639  -29.8989    0.5400   322   323   324     0
   324    7.4075    2.6499    3.9699    0.0116  -60.0639  -29.8989    0.5400   323   324   325     0
   325    7.4125    2.6471    3.9599    0.0116  -60.0639  -29.8989    0.5400   324   325   326     0
   326    7.4175    2.6442    3.9499    0.0116  -60.0639  -29.8989    0.5400   325   326   327     0
   327    7.4225    2.6413    3.9399    0.0116  -60.0639  -29.8989    0.5400   326   327   328     0
   328    7.4275    2.6384    3.9299    0.0116  -60.0639  -29.8989    0.5400   327   328   329     0
   329    7.4325    2.6356    3.9199    0.0116  -60.0639  -29.8989    0.5400   328   329   330     0
   330    7.4375    2.6327    3.9099    0.0116  -60.0639  -29.8989    0.5400   329   330   331     0
   331    7.4425    2.6298    3.8998    0.0116  -60.0639  -29.8989    0.5400   330   331   332     0
   332    7.4475    2.6269    3.8898    0.0116  -60.0639  -29.8989    0.5400   331   332   333     0
   333    7.4525    2.6241    3.8798    0.0116  -60.0639  -29.8989    0.5400   332   333   334     0
   334    7.4575    2.6212    3.8698    0.0116  -60.0639  -29.8989    0.5400   333   334   335     0
   335    7.4625    2.6183    3.8598    0.0116  -60.0639  -29.8989    0.5400   334   335   336     0
   336    7.4675    2.6154    3.8498    0.0116  -60.0639  -29.8989    0.5400   335   336   337     0
   337    7.4725    2.6126    3.8397    0.0116  -60.0639  -29.8989    0.5400   336   337   338     0
   338    7.4775    2.6097    3.8297    0.0116  -60.0639  -29.8989    0.5400   337   338   339     0
   339    7.4825    2.6068    3.8197    0.0116  -60.0639  -29.8989    0.5400   338   339   340     0
   340    7.4875    2.6039    3.8097    0.0116  -60.0639  -29.8989    0.5400   339   340   341     0
   341    7.4925    2.6011    3.7997    0.0116  -60.0639  -29.8989    0.5400   340   341   342     0
   342    7.4975    2.5982    3.7897    0.0116  -60.0639  -29.8989    0.5400   341   342   343     0
   343    7.5025    2.5953    3.7796    0.0116  -60.0639  -29.8989    0.5400   342   343   344     0
   344    7.5075    2.5924    3.7696    0.0116  -60.0639  -29.8989    0.5400   343   344   345     0
   345    7.5125    2.5896    3.7596    0.0116  -60.0639  -29.8989    0.5400   344   345   346     0
   346    7.5175    2.5867    3.7496    0.0116  -60.0639  -29.8989    0.5400   345   346   347     0
   347    7.5225    2.5838    3.7396    0.0116  -60.0639  -29.8989    0.5400   346   347   348     0
   348    7.5275    2.5809    3.7296    0.0116  -60.0639  -29.8989    0.5400   347   348   349     0
   349    7.5325    2.5781    3.7196    0.0116  -60.0639  -29.8989    0.5400   348   349   350     0
   350    7.5375    2.5752    3.7095    0.0116  -60.0639  -29.8989    0.5400   349   350   351     0
   351    7.5425    2.5723    3.6995    0.0116  -60.0639  -29.8989    0.5400   350   351   352     0
   352    7.5475    2.5694    3.6895    0.0116  -60.0639  -29.8989    0.5400   351   352   353     0
   353    7.5525    2.5666    3.6795    0.0116  -60.0639  -29.8989    0.5400   352   353   354     0
   354    7.5575    2.5637    3.6695    0.0116  -60.0639  -29.8989    0.5400   353   354   355     0
   355    7.5625    2.5608    3.6595    0.0116  -60.0639  -29.8989    0.5400   354   355   356     0
   356    7.5675    2.5579    3.6494    0.0116  -60.0639  -29.8989    0.5400   355   356   357     0
   357    7.5725    2.5551    3.6394    0.0116  -60.0639  -29.8989    0.5400   356   357   358     0
   358    7.5775    2.5522    3.6294    0.0116  -60.0639  -29.8989    0.5400   357   358   359     0
   359    7.5825    2.5493    3.6194    0.0116  -60.0639  -29.8989    0.5400   358   359   360     0
   360    7.5875    2.5464    3.6094    0.0116  -60.0639  -29.8989    0.5400   359   360   361     0
   361    7.5925    2.5436    3.5994    0.0116  -60.0639  -29.8989    0.5400   360   361   362     0
   362    7.5975    2.5407    3.5894    0.0116  -60.0639  -29.8989    0.5400   361   362   363     0
   363    7.6025    2.5378    3.5793    0.0116  -60.0639  -29.8989    0.5400   362   363   364     0
   364    7.6075    2.5349    3.5693    0.0116  -60.0639  -29.8989    0.5400   363   364   365     0
   365    7.6125    2.5321    3.5593    0.0116  -60.0639  -29.8989    0.5400   364   365   366     0
   366    7.6175    2.5292    3.5493    0.0116  -60.0639  -29.8989    0.5400   365   366   367     0
   367    7.6225    2.5263    3.5393    0.0116  -60.0639  -29.8989    0.5400   366   367   368     0
   368    7.6275    2.5234    3.5293    0.0116  -60.0639  -29.8989    0.5400   367   368   369     0
   369    7.6325    2.5206    3.5192    0.0116  -60.0639  -29.8989    0.5400   368   369   370     0
   370    7.6375    2.5177    3.5092    0.0116  -60.0639  -29.8989    0.5400   369   370   371     0
   371    7.6425    2.5148    3.4992    0.0116  -60.0639  -29.8989    0.5400   370   371   372     0
   372    7.6475    2.5119    3.4892    0.0116  -60.0639  -29.8989    0.5400   371   372   373     0
   373    7.6525    2.5091    3.4792    0.0116  -60.0639  -29.8989    0.5400   372   373   374     0
   374    7.6575    2.5062    3.4692    0.0116  -60.0639  -29.8989    0.5400   373   374   375     0
   375    7.6625    2.5033    3.4591    0.0116  -60.0639  -29.8989    0.5400   374   375   376     0
   376    7.6675    2.5004    3.4491    0.0116  -60.0639  -29.8989    0.5400   375   376   377     0
   377    7.6725    2.4976    3.4391    0.0116  -60.0639  -29.8989    0.5400   376   377   378     0
   378    7.6775    2.4947    3.4291    0.0116  -60.0639  -29.8989    0.5400   377   378   379     0
   379    7.6825    2.4918    3.4191    0.0116  -60.0639  -29.8989    0.5400   378   379   380     0
   380    7.6875    2.4889    3.4091    0.0116  -60.0639  -29.8989    0.5400   379   380   381     0
   381    7.6925    2.4861    3.3991    0.0116  -60.0639  -29.8989    0.5400   380   381   382     0
   382    7.6975    2.4832    3.3890    0.0116  -60.0639  -29.8989    0.5400   381   382   383     0
   383    7.7025    2.4803    3.3790    0.0116  -60.0639  -29.8989    0.5400   382   383   384     0
   384    7.7075    2.4774    3.3690    0.0116  -60.0639  -29.8989    0.5400   383   384   385     0
   385    7.7125    2.4746    3.3590    0.0116  -60.0639  -29.8989    0.5400   384   385   386     0
   386    7.7175    2.4717    3.3490    0.0116  -60.0639  -29.8989    0.5400   385   386   387     0
   387    7.7225    2.4688    3.3390    0.0116  -60.0639  -29.8989    0.5400   386   387   388     0
   388    7.7275    2.4659    3.3289    0.0116  -60.0639  -29.8989    0.5400   387   388   389     0
   389    7.7325    2.4631    3.3189    0.0116  -60.0639  -29.8989    0.5400   388   389   390     0
   390    7.7375    2.4602    3.3089    0.0116  -60.0639  -29.8989    0.5400   389   390   391     0
   391    7.7425    2.4573    3.2989    0.0116  -60.0639  -29.8989    0.5400   390   391   392     0
   392    7.7475    2.4544    3.2889    0.0116  -60.0639  -29.8989    0.5400   391   392   393     0
   393    7.7525    2.4516    3.2789    0.0116  -60.0639  -29.8989    0.5400   392   393   394     0
   394    7.7575    2.4487    3.2689    0.0116  -60.0639  -29.8989    0.5400   393   394   395     0
   395    7.7625    2.4458    3.2588    0.0116  -60.0639  -29.8989    0.5400   394   395   396     0
   396    7.7675    2.4429    3.2488    0.0116  -60.0639  -29.8989    0.5400   395   396   397     0
   397    7.7725    2.4401    3.2388    0.0116  -60.0639  -29.8989    0.5400   396   397   398     0
   398    7.7775    2.4372    3.2288    0.0116  -60.0639  -29.8989    0.5400   397   398   399     0
   399    7.7825    2.4343    3.2188    0.0116  -60.0639  -29.8989    0.5400   398   399   400     0
   400    7.7875    2.4314    3.2088    0.0116  -60.0639  -29.8989    0.5400   399   400   401     0
   401    7.7925    2.4286    3.1987    0.0116  -60.0639  -29.8989    0.5400   400   401   402     0
   402    7.7975    2.4257    3.1887    0.0116  -60.0639  -29.8989    0.5400   401   402   403     0
   403    7.8025    2.4228    3.1787    0.0116  -60.0639  -29.8989    0.5400   402   403   404     0
   404    7.8075    2.4199    3.1687    0.0116  -60.0639  -29.8989    0.5400   403   404   405     0
   405    7.8125    2.4171    3.1587    0.0116  -60.0639  -29.8989    0.5400   404   405   406     0
   406    7.8175    2.4142    3.1487    0.0116  -60.0639  -29.8989    0.5400   405   406   407     0
   407    7.8225    2.4113    3.1386    0.0116  -60.0639  -29.8989    0.5400   406   407   408     0
   408    7.8275    2.4084    3.1286    0.0116  -60.0639  -29.8989    0.5400   407   408   409     0
   409    7.8325    2.4056    3.1186    0.0116  -60.0639  -29.8989    0.5400   408   409   410     0
   410    7.8375    2.4027    3.1086    0.0116  -60.0639  -29.8989    0.5400   409   410   411     0
   411    7.8425    2.3998    3.0986    0.0116  -60.0639  -29.8989    0.5400   410   411   412     0
   412    7.8475    2.3969    3.0886    0.0116  -60.0639  -29.8989    0.5400   411   412   413     0
   413    7.8525    2.3941    3.0786    0.0116  -60.0639  -29.8989    0.5400   412   413   414     0
   414    7.8575    2.3912    3.0685    0.0116  -60.0639  -29.8989    0.5400   413   414   415     0
   415    7.8625    2.3883    3.0585    0.0116  -60.0639  -29.8989    0.5400   414   415   416     0
   416    7.8675    2.3854    3.0485    0.0116  -60.0639  -29.8989    0.5400   415   416   417     0
   417    7.8725    2.3826    3.0385    0.0116  -60.0639  -29.8989    0.5400   416   417   418     0
   418    7.8775    2.3797    3.0285    0.0116  -60.0639  -29.8989    0.5400   417   418   419     0
   419    7.8825    2.3768    3.0185    0.0116  -60.0639  -29.8989    0.5400   418   419   420     0
   420    7.8875    2.3739    3.0084    0.0116  -60.0639  -29.8989    0.5400   419   420   421     0
   421    7.8925    2.3711    2.9984    0.0116  -60.0639  -29.8989    0.5400   420   421   422     0
   422    7.8975    2.3682    2.9884    0.0116  -60.0639  -29.8989    0.5400   421   422   423     0
   423    7.9025    2.3653    2.9784    0.0116  -60.0639  -29.8989    0.5400   422   423   424     0
   424    7.9075    2.3624    2.9684    0.0116  -60.0639  -29.8989    0.5400   423   424   425     0
   425    7.9125    2.3596    2.9584    0.0116  -60.0639  -29.8989    0.5400   424   425   426     0
   426    7.9175    2.3567    2.9484    0.0116  -60.0639  -29.8989    0.5400   425   426   427     0
   427    7.9225    2.3538    2.9383    0.0116  -60.0639  -29.8989    0.5400   426   427   428     0
   428    7.9275    2.3509    2.9283    0.0116  -60.0639  -29.8989    0.5400   427   428   429     0
   429    7.9325    2.3481    2.9183    0.0116  -60.0639  -29.8989    0.5400   428   429   430     0
   430    7.9375    2.3452    2.9083    0.0116  -60.0639  -29.8989    0.5400   429   430   431     0
   431    7.9425    2.3423    2.8983    0.0116  -60.0639  -29.8989    0.5400   430   431   432     0
   432    7.9475    2.3394    2.8883    0.0116  -60.0639  -29.8989    0.5400   431   432   433     0
   433    7.9525    2.3366    2.8782    0.0116  -60.0639  -29.8989    0.5400   432   433   434     0
   434    7.9575    2.3337    2.8682    0.0116  -60.0639  -29.8989    0.5400   433   434   435     0
   435    7.9625    2.3308    2.8582    0.0116  -60.0639  -29.8989    0.5400   434   435   436     0
   436    7.9675    2.3279    2.8482    0.0116  -60.0639  -29.8989    0.5400   435   436   437     0
   437    7.9725    2.3251    2.8382    0.0116  -60.0639  -29.8989    0.5400   436   437   438     0
   438    7.9775    2.3222    2.8282    0.0116  -60.0639  -29.8989    0.5400   437   438   439     0
   439    7.9825    2.3193    2.8181    0.0116  -60.0639  -29.8989    0.5400   438   439   440     0
   440    7.9875    2.3164    2.8081    0.0116  -60.0639  -29.8989    0.5400   439   440   441     0
   441    7.9925    2.3136    2.7981    0.0116  -60.0639  -29.8989    0.5400   440   441   442     0
   442    7.9975    2.3107    2.7881    0.0116  -60.0639  -29.8989    0.5400   441   442   443     0
   443    8.0025    2.3078    2.7781    0.0116  -60.0639  -29.8989    0.5400   442   443   444     0
   444    8.0075    2.3049    2.7681    0.0116  -60.0639  -29.8989    0.5400   443   444   445     0
   445    8.0125    2.3021    2.7581    0.0116  -60.0639  -29.8989    0.5400   444   445   446     0
   446    8.0175    2.2992    2.7480    0.0116  -60.0639  -29.8989    0.5400   445   446   447     0
   447    8.0225    2.2963    2.7380    0.0116  -60.0639  -29.8989    0.5400   446   447   448     0
   448    8.0275    2.2934    2.7280    0.0116  -60.0639  -29.8989    0.5400   447   448   449     0
   449    8.0325    2.2906    2.7180    0.0116  -60.0639  -29.8989    0.5400   448   449   450     0
   450    8.0375    2.2877    2.7080    0.0116  -60.0639  -29.8989    0.5400   449   450   451     0
   451    8.0425    2.2848    2.6980    0.0116  -60.0639  -29.8989    0.5400   450   451   452     0
   452    8.0475    2.2819    2.6879    0.0116  -60.0639  -29.8989    0.5400   451   452   453     0
   453    8.0525    2.2791    2.6779    0.0116  -60.0639  -29.8989    0.5400   452   453   454     0
   454    8.0575    2.2762    2.6679    0.0116  -60.0639  -29.8989    0.5400   453   454   455     0
   455    8.0625    2.2733    2.6579    0.0116  -60.0639  -29.8989    0.5400   454   455   456     0
   456    8.0675    2.2704    2.6479    0.0116  -60.0639  -29.8989    0.5400   455   456   457     0
   457    8.0725    2.2676    2.6379    0.0116  -60.0639  -29.8989    0.5400   456   457   458     0
   458    8.0775    2.2647    2.6279    0.0116  -60.0639  -29.8989    0.5400   457   458   459     0
   459    8.0825    2.2618    2.6178    0.0116  -60.0639  -29.8989    0.5400   458   459   460     0
   460    8.0875    2.2589    2.6078    0.0116  -60.0639  -29.8989    0.5400   459   460   461     0
   461    8.0925    2.2561    2.5978    0.0116  -60.0639  -29.8989    0.5400   460   461   462     0
   462    8.0975    2.2532    2.5878    0.0116  -60.0639  -29.8989    0.5400   461   462   463     0
   463    8.1025    2.2503    2.5778    0.0116  -60.0639  -29.8989    0.5400   462   463   464     0
   464    8.1075    2.2474    2.5678    0.0116  -60.0639  -29.8989    0.5400   463   464   465     0
   465    8.1125    2.2446    2.5577    0.0116  -60.0639  -29.8989    0.5400   464   465   466     0
   466    8.1175    2.2417    2.5477    0.0116  -60.0639  -29.8989    0.5400   465   466   467     0
   467    8.1225    2.2388    2.5377    0.0116  -60.0639  -29.8989    0.5400   466   467   468     0
   468    8.1275    2.2359    2.5277    0.0116  -60.0639  -29.8989    0.5400   467   468   469     0
   469    8.1325    2.2331    2.5177    0.0116  -60.0639  -29.8989    0.5400   468   469   470     0
   470    8.1375    2.2302    2.5077    0.0116  -60.0639  -29.8989    0.5400   469   470   471     0
   471    8.1425    2.2273    2.4976    0.0116  -60.0639  -29.8989    0.5400   470   471   472     0
   472    8.1475    2.2244    2.4876    0.0116  -60.0639  -29.8989    0.5400   471   472   473     0
   473    8.1525    2.2216    2.4776    0.0116  -60.0639  -29.8989    0.5400   472   473   474     0
   474    8.1575    2.2187    2.4676    0.0116  -60.0639  -29.8989    0.5400   473   474   475     0
   475    8.1625    2.2158    2.4576    0.0116  -60.0639  -29.8989    0.5400   474   475   476     0
   476    8.1675    2.2129    2.4476    0.0116  -60.0639  -29.8989    0.5400   475   476   477     0
   477    8.1725    2.2101    2.4376    0.0116  -60.0639  -29.8989    0.5400   476   477   478     0
   478    8.1775    2.2072    2.4275    0.0116  -60.0639  -29.8989    0.5400   477   478   479     0
   479    8.1825    2.2043    2.4175    0.0116  -60.0639  -29.8989    0.5400   478   479   480     0
   480    8.1875    2.2014    2.4075    0.0116  -60.0639  -29.8989    0.5400   479   480   481     0
   481    8.1925    2.1986    2.3975    0.0116  -60.0639  -29.8989    0.5400   480   481   482     0
   482    8.1975    2.1957    2.3875    0.0116  -60.0639  -29.8989    0.5400   481   482   483     0
   483    8.2025    2.1928    2.3775    0.0116  -60.0639  -29.8989    0.5400   482   483   484     0
   484    8.2075    2.1899    2.3674    0.0116  -60.0639  -29.8989    0.5400   483   484   485     0
   485    8.2125    2.1871    2.3574    0.0116  -60.0639  -29.8989    0.5400   484   485   486     0
   486    8.2175    2.1842    2.3474    0.0116  -60.0639  -29.8989    0.5400   485   486   487     0
   487    8.2225    2.1813    2.3374    0.0116  -60.0639  -29.8989    0.5400   486   487   488     0
   488    8.2275    2.1784    2.3274    0.0116  -60.0639  -29.8989    0.5400   487   488   489     0
   489    8.2325    2.1756    2.3174    0.0116  -60.0639  -29.8989    0.5400   488   489   490     0
   490    8.2375    2.1727    2.3074    0.0116  -60.0639  -29.8989    0.5400   489   490   491     0
   491    8.2425    2.1698    2.2973    0.0116  -60.0639  -29.8989    0.5400   490   491   492     0
   492    8.2475    2.1669    2.2873    0.0116  -60.0639  -29.8989    0.5400   491   492   493     0
   493    8.2525    2.1641    2.2773    0.0116  -60.0639  -29.8989    0.5400   492   493   494     0
   494    8.2575    2.1612    2.2673    0.0116  -60.0639  -29.8989    0.5400   493   494   495     0
   495    8.2625    2.1583    2.2573    0.0116  -60.0639  -29.8989    0.5400   494   495   496     0
   496    8.2675    2.1554    2.2473    0.0116  -60.0639  -29.8989    0.5400   495   496   497     0
   497    8.2725    2.1526    2.2372    0.0116  -60.0639  -29.8989    0.5400   496   497   498     0
   498    8.2775    2.1497    2.2272    0.0116  -60.0639  -29.8989    0.5400   497   498   499     0
   499    8.2825    2.1468    2.2172    0.0116  -60.0639  -29.8989    0.5400   498   499   500     0
   500    8.2875    2.1439    2.2072    0.0116  -60.0639  -29.8989    0.5400   499   500   501     0
   501    8.2925    2.1411    2.1972    0.0116  -60.0639  -29.8989    0.5400   500   501   502     0
   502    8.2975    2.1382    2.1872    0.0116  -60.0639  -29.8989    0.5400   501   502   503     0
   503    8.3025    2.1353    2.1771    0.0116  -60.0639  -29.8989    0.5400   502   503   504     0
   504    8.3075    2.1324    2.1671    0.0116  -60.0639  -29.8989    0.5400   503   504   505     0
   505    8.3125    2.1296    2.1571    0.0116  -60.0639  -29.8989    0.5400   504   505   506     0
   506    8.3175    2.1267    2.1471    0.0116  -60.0639  -29.8989    0.5400   505   506   507     0
   507    8.3225    2.1238    2.1371    0.0116  -60.0639  -29.8989    0.5400   506   507   508     0
   508    8.3275    2.1209    2.1271    0.0116  -60.0639  -29.8989    0.5400   507   508   509     0
   509    8.3325    2.1181    2.1171    0.0116  -60.0639  -29.8989    0.5400   508   509   510     0
   510    8.3375    2.1152    2.1070    0.0116  -60.0639  -29.8989    0.5400   509   510   511     0
   511    8.3425    2.1123    2.0970    0.0116  -60.0639  -29.8989    0.5400   510   511   512     0
   512    8.3475    2.1094    2.0870    0.0116  -60.0639  -29.8989    0.5400   511   512   513     0
   513    8.3525    2.1066    2.0770    0.0116  -60.0639  -29.8989    0.5400   512   513   514     0
   514    8.3575    2.1037    2.0670    0.0116  -60.0639  -29.8989    0.5400   513   514   515     0
   515    8.3625    2.1008    2.0570    0.0116  -60.0639  -29.8989    0.5400   514   515   516     0
   516    8.3675    2.0979    2.0469    0.0116  -60.0639  -29.8989    0.5400   515   516   517     0
   517    8.3725    2.0951    2.0369    0.0116  -60.0639  -29.8989    0.5400   516   517   518     0
   518    8.3775    2.0922    2.0269    0.0116  -60.0639  -29.8989    0.5400   517   518   519     0
   519    8.3825    2.0893    2.0169    0.0116  -60.0639  -29.8989    0.5400   518   519   520     0
   520    8.3875    2.0864    2.0069    0.0116  -60.0639  -29.8989    0.5400   519   520   521     0
   521    8.3925    2.0836    1.9969    0.0116  -60.0639  -29.8989    0.5400   520   521   522     0
   522    8.3975    2.0807    1.9869    0.0116  -60.0639  -29.8989    0.5400   521   522   523     0
   523    8.4025    2.0778    1.9768    0.0116  -60.0639  -29.8989    0.5400   522   523   524     0
   524    8.4075    2.0749    1.9668    0.0116  -60.0639  -29.8989    0.5400   523   524   525     0
   525    8.4125    2.0721    1.9568    0.0116  -60.0639  -29.8989    0.5400   524   525   526     0
   526    8.4175    2.0692    1.9468    0.0116  -60.0639  -29.8989    0.5400   525   526   527     0
   527    8.4225    2.0663    1.9368    0.0116  -60.0639  -29.8989    0.5400   526   527   528     0
   528    8.4275    2.0634    1.9268    0.0116  -60.0639  -29.8989    0.5400   527   528   529     0
   529    8.4325    2.0606    1.9167    0.0116  -60.0639  -29.8989    0.5400   528   529   530     0
   530    8.4375    2.0577    1.9067    0.0116  -60.0639  -29.8989    0.5400   529   530   531     0
   531    8.4425    2.0548    1.8967    0.0116  -60.0639  -29.8989    0.5400   530   531   532     0
   532    8.4475    2.0519    1.8867    0.0116  -60.0639  -29.8989    0.5400   531   532   533     0
   533    8.4525    2.0491    1.8767    0.0116  -60.0639  -29.8989    0.5400   532   533   534     0
   534    8.4575    2.0462    1.8667    0.0116  -60.0639  -29.8989    0.5400   533   534   535     0
   535    8.4625    2.0433    1.8566    0.0116  -60.0639  -29.8989    0.5400   534   535   536     0
   536    8.4675    2.0404    1.8466    0.0116  -60.0639  -29.8989    0.5400   535   536   537     0
   537    8.4725    2.0376    1.8366    0.0116  -60.0639  -29.8989    0.5400   536   537   538     0
   538    8.4775    2.0347    1.8266    0.0116  -60.0639  -29.8989    0.5400   537   538   539     0
   539    8.4825    2.0318    1.8166    0.0116  -60.0639  -29.8989    0.5400   538   539   540     0
   540    8.4875    2.0289    1.8066    0.0116  -60.0639  -29.8989    0.5400   539   540   541     0
   541    8.4925    2.0261    1.7966    0.0116  -60.0639  -29.8989    0.5400   540   541   542     0
   542    8.4975    2.0232    1.7865    0.0116  -60.0639  -29.8989    0.5400   541   542   543     0
   543    8.5025    2.0203    1.7765    0.0116  -60.0639  -29.8989    0.5400   542   543   544     0
   544    8.5075    2.0174    1.7665    0.0116  -60.0639  -29.8989    0.5400   543   544   545     0
   545    8.5125    2.0146    1.7565    0.0116  -60.0639  -29.8989    0.5400   544   545   546     0
   546    8.5175    2.0117    1.7465    0.0116  -60.0639  -29.8989    0.5400   545   546   547     0
   547    8.5225    2.0088    1.7365    0.0116  -60.0639  -29.8989    0.5400   546   547   548     0
   548    8.5275    2.0059    1.7264    0.0116  -60.0639  -29.8989    0.5400   547   548   549     0
   549    8.5325    2.0031    1.7164    0.0116  -60.0639  -29.8989    0.5400   548   549   550     0
   550    8.5375    2.0002    1.7064    0.0116  -60.0639  -29.8989    0.5400   549   550   551     0
   551    8.5425    1.9973    1.6964    0.0116  -60.0639  -29.8989    0.5400   550   551   552     0
   552    8.5475    1.9944    1.6864    0.0116  -60.0639  -29.8989    0.5400   551   552   553     0
   553    8.5525    1.9916    1.6764    0.0116  -60.0639  -29.8989    0.5400   552   553   554     0
   554    8.5575    1.9887    1.6664    0.0116  -60.0639  -29.8989    0.5400   553   554   555     0
   555    8.5625    1.9858    1.6563    0.0116  -60.0639  -29.8989    0.5400   554   555   556     0
   556    8.5675    1.9829    1.6463    0.0116  -60.0639  -29.8989    0.5400   555   556   557     0
   557    8.5725    1.9801    1.6363    0.0116  -60.0639  -29.8989    0.5400   556   557   558     0
   558    8.5775    1.9772    1.6263    0.0116  -60.0639  -29.8989    0.5400   557   558   559     0
   559    8.5825    1.9743    1.6163    0.0116  -60.0639  -29.8989    0.5400   558   559   560     0
   560    8.5875    1.9714    1.6063    0.0116  -60.0639  -29.8989    0.5400   559   560   561     0
   561    8.5925    1.9686    1.5962    0.0116  -60.0639  -29.8989    0.5400   560   561   562     0
   562    8.5975    1.9657    1.5862    0.0116  -60.0639  -29.8989    0.5400   561   562   563     0
   563    8.6025    1.9628    1.5762    0.0116  -60.0639  -29.8989    0.5400   562   563   564     0
   564    8.6075    1.9599    1.5662    0.0116  -60.0639  -29.8989    0.5400   563   564   565     0
   565    8.6125    1.9571    1.5562    0.0116  -60.0639  -29.8989    0.5400   564   565   566     0
   566    8.6175    1.9542    1.5462    0.0116  -60.0639  -29.8989    0.5400   565   566   567     0
   567    8.6225    1.9513    1.5361    0.0116  -60.0639  -29.8989    0.5400   566   567   568     0
   568    8.6275    1.9484    1.5261    0.0116  -60.0639  -29.8989    0.5400   567   568   569     0
   569    8.6325    1.9456    1.5161    0.0116  -60.0639  -29.8989    0.5400   568   569   570     0
   570    8.6375    1.9427    1.5061    0.0116  -60.0639  -29.8989    0.5400   569   570   571     0
   571    8.6425    1.9398    1.4961    0.0116  -60.0639  -29.8989    0.5400   570   571   572     0
   572    8.6475    1.9369    1.4861    0.0116  -60.0639  -29.8989    0.5400   571   572   573     0
   573    8.6525    1.9341    1.4761    0.0116  -60.0639  -29.8989    0.5400   572   573   574     0
   574    8.6575    1.9312    1.4660    0.0116  -60.0639  -29.8989    0.5400   573   574   575     0
   575    8.6625    1.9283    1.4560    0.0116  -60.0639  -29.8989    0.5400   574   575   576     0
   576    8.6675    1.9254    1.4460    0.0116  -60.0639  -29.8989    0.5400   575   576   577     0
   577    8.6725    1.9226    1.4360    0.0116  -60.0639  -29.8989    0.5400   576   577   578     0
   578    8.6775    1.9197    1.4260    0.0116  -60.0639  -29.8989    0.5400   577   578   579     0
   579    8.6825    1.9168    1.4160    0.0116  -60.0639  -29.8989    0.5400   578   579   580     0
   580    8.6875    1.9139    1.4059    0.0116  -60.0639  -29.8989    0.5400   579   580   581     0
   581    8.6925    1.9111    1.3959    0.0116  -60.0639  -29.8989    0.5400   580   581   582     0
   582    8.6975    1.9082    1.3859    0.0116  -60.0639  -29.8989    0.5400   581   582   583     0
   583    8.7025    1.9053    1.3759    0.0116  -60.0639  -29.8989    0.5400   582   583   584     0
   584    8.7075    1.9024    1.3659    0.0116  -60.0639  -29.8989    0.5400   583   584   585     0
   585    8.7125    1.8996    1.3559    0.0116  -60.0639  -29.8989    0.5400   584   585   586     0
   586    8.7175    1.8967    1.3459    0.0116  -60.0639  -29.8989    0.5400   585   586   587     0
   587    8.7225    1.8938    1.3358    0.0116  -60.0639  -29.8989    0.5400   586   587   588     0
   588    8.7275    1.8909    1.3258    0.0116  -60.0639  -29.8989    0.5400   587   588   589     0
   589    8.7325    1.8881    1.3158    0.0116  -60.0639  -29.8989    0.5400   588   589   590     0
   590    8.7375    1.8852    1.3058    0.0116  -60.0639  -29.8989    0.5400   589   590   591     0
   591    8.7425    1.8823    1.2958    0.0116  -60.0639  -29.8989    0.5400   590   591   592     0
   592    8.7475    1.8794    1.2858    0.0116  -60.0639  -29.8989    0.5400   591   592   593     0
   593    8.7525    1.8766    1.2757    0.0116  -60.0639  -29.8989    0.5400   592   593   594     0
   594    8.7575    1.8737    1.2657    0.0116  -60.0639  -29.8989    0.5400   593   594   595     0
   595    8.7625    1.8708    1.2557    0.0116  -60.0639  -29.8989    0.5400   594   595   596     0
   596    8.7675    1.8679    1.2457    0.0116  -60.0639  -29.8989    0.5400   595   596   597     0
   597    8.7725    1.8651    1.2357    0.0116  -60.0639  -29.8989    0.5400   596   597   598     0
   598    8.7775    1.8622    1.2257    0.0116  -60.0639  -29.8989    0.5400   597   598   599     0
   599    8.7825    1.8593    1.2156    0.0116  -60.0639  -29.8989    0.5400   598   599   600     0
   600    8.7875    1.8564    1.2056    0.0116  -60.0639  -29.8989    0.5400   599   600   601     0
   601    8.7925    1.8536    1.1956    0.0116  -60.0639  -29.8989    0.5400   600   601   602     0
   602    8.7975    1.8507    1.1856    0.0116  -60.0639  -29.8989    0.5400   601   602   603     0
   603    8.8025    1.8478    1.1756    0.0116  -60.0639  -29.8989    0.5400   602   603   604     0
   604    8.8075    1.8449    1.1656    0.0116  -60.0639  -29.8989    0.5400   603   604   605     0
   605    8.8125    1.8421    1.1556    0.0116  -60.0639  -29.8989    0.5400   604   605   606     0
   606    8.8175    1.8392    1.1455    0.0116  -60.0639  -29.8989    0.5400   605   606   607     0
   607    8.8225    1.8363    1.1355    0.0116  -60.0639  -29.8989    0.5400   606   607   608     0
   608    8.8275    1.8334    1.1255    0.0116  -60.0639  -29.8989    0.5400   607   608   609     0
   609    8.8325    1.8306    1.1155    0.0116  -60.0639  -29.8989    0.5400   608   609   610     0
   610    8.8375    1.8277    1.1055    0.0116  -60.0639  -29.8989    0.5400   609   610   611     0
   611    8.8425    1.8248    1.0955    0.0116  -60.0639  -29.8989    0.5400   610   611   612     0
   612    8.8475    1.8219    1.0854    0.0116  -60.0639  -29.8989    0.5400   611   612   613     0
   613    8.8525    1.8191    1.0754    0.0116  -60.0639  -29.8989    0.5400   612   613   614     0
   614    8.8575    1.8162    1.0654    0.0116  -60.0639  -29.8989    0.5400   613   614   615     0
   615    8.8625    1.8133    1.0554    0.0116  -60.0639  -29.8989    0.5400   614   615   616     0
   616    8.8675    1.8104    1.0454    0.0116  -60.0639  -29.8989    0.5400   615   616   617     0
   617    8.8725    1.8076    1.0354    0.0116  -60.0639  -29.8989    0.5400   616   617   618     0
   618    8.8775    1.8047    1.0254    0.0116  -60.0639  -29.8989    0.5400   617   618   619     0
   619    8.8825    1.8018    1.0153    0.0116  -60.0639  -29.8989    0.5400   618   619   620     0
   620    8.8875    1.7989    1.0053    0.0116  -60.0639  -29.8989    0.5400   619   620   621     0
   621    8.8925    1.7961    0.9953    0.0116  -60.0639  -29.8989    0.5400   620   621   622     0
   622    8.8975    1.7932    0.9853    0.0116  -60.0639  -29.8989    0.5400   621   622   623     0
   623    8.9025    1.7903    0.9753    0.0116  -60.0639  -29.8989    0.5400   622   623   624     0
   624    8.9075    1.7874    0.9653    0.0116  -60.0639  -29.8989    0.5400   623   624   625     0
   625    8.9125    1.7846    0.9552    0.0116  -60.0639  -29.8989    0.5400   624   625   626     0
   626    8.9175    1.7817    0.9452    0.0116  -60.0639  -29.8989    0.5400   625   626   627     0
   627    8.9225    1.7788    0.9352    0.0116  -60.0639  -29.8989    0.5400   626   627   628     0
   628    8.9275    1.7759    0.9252    0.0116  -60.0639  -29.8989    0.5400   627   628   629     0
   629    8.9325    1.7731    0.9152    0.0116  -60.0639  -29.8989    0.5400   628   629   630     0
   630    8.9375    1.7702    0.9052    0.0116  -60.0639  -29.8989    0.5400   629   630   631     0
   631    8.9425    1.7673    0.8951    0.0116  -60.0639  -29.8989    0.5400   630   631   632     0
   632    8.9475    1.7644    0.8851    0.0116  -60.0639  -29.8989    0.5400   631   632   633     0
   633    8.9525    1.7616    0.8751    0.0116  -60.0639  -29.8989    0.5400   632   633   634     0
   634    8.9575    1.7587    0.8651    0.0116  -60.0639  -29.8989    0.5400   633   634   635     0
   635    8.9625    1.7558    0.8551    0.0116  -60.0639  -29.8989    0.5400   634   635   636     0
   636    8.9675    1.7529    0.8451    0.0116  -60.0639  -29.8989    0.5400   635   636   637     0
   637    8.9725    1.7501    0.8351    0.0116  -60.0639  -29.8989    0.5400   636   637   638     0
   638    8.9775    1.7472    0.8250    0.0116  -60.0639  -29.8989    0.5400   637   638   639     0
   639    8.9825    1.7443    0.8150    0.0116  -60.0639  -29.8989    0.5400   638   639   640     0
   640    8.9875    1.7414    0.8050    0.0116  -60.0639  -29.8989    0.5400   639   640     0     0



*****  DATA CARD N0.   1 FR   0     1     0     0  2.40000E+03  0.00000E+00  0.00000E+00  0.00000E+00  0.00000E+00  0.00000E+00
*****  DATA CARD N0.   2 EX   0     0     5     0  1.00000E+00  0.00000E+00  0.00000E+00  0.00000E+00  0.00000E+00  0.00000E+00
*****  DATA CARD N0.   3 GN   1     0     0     0  0.00000E+00  0.00000E+00  0.00000E+00  0.00000E+00  0.00000E+00  0.00000E+00
*****  DATA CARD N0.   4 RP   0    90     1   500  0.00000E+00  9.00000E+01  1.00000E+00  0.00000E+00  0.00000E+00  0.00000E+00


                               --------- FREQUENCY --------
                               FREQUENCY=  2.4000E+03 MHZ
                               WAVELENGTH= 1.2492E-01 METERS


                        APPROXIMATE INTEGRATION EMPLOYED FOR SEGMENTS
                        THAT ARE MORE THAN 1.000 WAVELENGTHS APART



                          ------ STRUCTURE IMPEDANCE LOADING ------
                                 THIS STRUCTURE IS NOT LOADED



                            -------- ANTENNA ENVIRONMENT --------

                            PERFECT GROUND
  PIVOT(7)=  2.0633E-11
  PIVOT(8)=  3.3520E-13
  PIVOT(9)=  4.4019E-15
  PIVOT(10)=  5.6643E-16
  PIVOT(11)=  2.4329E-17
  PIVOT(12)=  9.4526E-19
  PIVOT(13)=  6.1881E-20
  PIVOT(14)=  6.8464E-21
  PIVOT(15)=  8.5367E-21
  PIVOT(16)=  1.6768E-21
  PIVOT(17)=  2.8897E-21
  PIVOT(18)=  1.2177E-21
  PIVOT(19)=  8.7960E-22
  PIVOT(20)=  7.7869E-22
  PIVOT(21)=  3.9088E-22
  PIVOT(22)=  8.8233E-22
  PIVOT(23)=  6.8878E-22
  PIVOT(24)=  3.6533E-22
  PIVOT(25)=  4.7805E-22
  PIVOT(26)=  2.8169E-22
  PIVOT(27)=  1.4424E-22
  PIVOT(28)=  1.0908E-22
  PIVOT(29)=  3.4540E-22
  PIVOT(30)=  3.2945E-22
  PIVOT(31)=  2.4632E-22
  PIVOT(32)=  4.2073E-22
  PIVOT(33)=  2.2638E-22
  PIVOT(34)=  2.7539E-22
  PIVOT(35)=  3.5364E-22
  PIVOT(36)=  2.9088E-22
  PIVOT(37)=  2.1293E-22
  PIVOT(38)=  3.3559E-22
  PIVOT(39)=  7.4449E-22
  PIVOT(40)=  3.5770E-22
  PIVOT(41)=  1.8540E-22
  PIVOT(42)=  2.0272E-22
  PIVOT(43)=  1.6207E-22
  PIVOT(44)=  6.3623E-22
  PIVOT(45)=  1.5229E-22
  PIVOT(46)=  1.6756E-22
  PIVOT(47)=  1.7641E-22
  PIVOT(48)=  2.3300E-22
  PIVOT(49)=  1.6324E-22
  PIVOT(50)=  1.7457E-22
  PIVOT(51)=  6.6218E-22
  PIVOT(52)=  2.2182E-22
  PIVOT(53)=  1.0900E-21
  PIVOT(54)=  1.3632E-22
  PIVOT(55)=  1.4517E-22
  PIVOT(56)=  2.0160E-22
  PIVOT(57)=  5.0549E-22
  PIVOT(58)=  4.5230E-22
  PIVOT(59)=  2.6294E-22
  PIVOT(60)=  4.6428E-22
  PIVOT(61)=  3.2739E-22
  PIVOT(62)=  2.2218E-22
  PIVOT(63)=  3.0142E-22
  PIVOT(64)=  3.5872E-22
  PIVOT(65)=  3.4277E-22
  PIVOT(66)=  3.9330E-22
  PIVOT(67)=  2.5806E-22
  PIVOT(68)=  5.4703E-22
  PIVOT(69)=  3.7668E-22
  PIVOT(70)=  1.9806E-22
  PIVOT(71)=  1.3397E-22
  PIVOT(72)=  2.2507E-22
  PIVOT(73)=  8.1950E-22
  PIVOT(74)=  3.4343E-22
  PIVOT(75)=  2.0570E-22
  PIVOT(76)=  3.6576E-22
  PIVOT(77)=  2.7441E-22
  PIVOT(78)=  1.2030E-22
  PIVOT(79)=  2.2487E-22
  PIVOT(80)=  1.7163E-22
  PIVOT(81)=  3.2023E-22
  PIVOT(82)=  3.3457E-22
  PIVOT(83)=  6.4075E-23
  PIVOT(84)=  2.8678E-22
  PIVOT(85)=  2.2766E-22
  PIVOT(86)=  2.1250E-22
  PIVOT(87)=  3.1676E-22
  PIVOT(88)=  1.8355E-22
  PIVOT(89)=  2.4898E-22
  PIVOT(90)=  1.9313E-22
  PIVOT(91)=  1.7786E-22
  PIVOT(92)=  2.3131E-22
  PIVOT(93)=  5.1860E-22
  PIVOT(94)=  3.9302E-22
  PIVOT(95)=  2.9130E-22
  PIVOT(96)=  5.5258E-22
  PIVOT(97)=  1.2233E-22
  PIVOT(98)=  3.9356E-22
  PIVOT(99)=  2.4599E-22
  PIVOT(100)=  2.0184E-22
  PIVOT(101)=  3.1689E-22
  PIVOT(102)=  2.4467E-22
  PIVOT(103)=  3.9016E-22
  PIVOT(104)=  1.3215E-22
  PIVOT(105)=  3.4791E-22
  PIVOT(106)=  5.6133E-22
  PIVOT(107)=  3.7160E-22
  PIVOT(108)=  4.5268E-22
  PIVOT(109)=  1.3232E-22
  PIVOT(110)=  1.7188E-22
  PIVOT(111)=  4.3856E-22
  PIVOT(112)=  1.9936E-22
  PIVOT(113)=  3.6227E-22
  PIVOT(114)=  3.0562E-22
  PIVOT(115)=  2.8411E-22
  PIVOT(116)=  1.4956E-22
  PIVOT(117)=  9.8192E-22
  PIVOT(118)=  1.8708E-22
  PIVOT(119)=  3.6818E-22
  PIVOT(120)=  9.7960E-23
  PIVOT(121)=  2.7207E-22
  PIVOT(122)=  9.2243E-23
  PIVOT(123)=  3.7362E-22
  PIVOT(124)=  1.6266E-22
  PIVOT(125)=  4.0417E-22
  PIVOT(126)=  4.8794E-22
  PIVOT(127)=  1.6627E-22
  PIVOT(128)=  2.7779E-22
  PIVOT(129)=  4.3418E-22
  PIVOT(130)=  1.7334E-22
  PIVOT(131)=  1.9165E-22
  PIVOT(132)=  1.2450E-22
  PIVOT(133)=  1.8559E-22
  PIVOT(134)=  5.0250E-22
  PIVOT(135)=  5.8211E-22
  PIVOT(136)=  4.4056E-22
  PIVOT(137)=  4.9423E-22
  PIVOT(138)=  2.7830E-22
  PIVOT(139)=  5.0744E-22
  PIVOT(140)=  3.9356E-22
  PIVOT(141)=  1.6339E-22
  PIVOT(142)=  4.0079E-22
  PIVOT(143)=  2.1002E-22
  PIVOT(144)=  4.4300E-22
  PIVOT(145)=  1.6153E-22
  PIVOT(146)=  7.9488E-22
  PIVOT(147)=  5.9247E-22
  PIVOT(148)=  2.3294E-22
  PIVOT(149)=  1.1056E-21
  PIVOT(150)=  1.0376E-22
  PIVOT(151)=  1.5834E-22
  PIVOT(152)=  5.0491E-22
  PIVOT(153)=  1.6190E-22
  PIVOT(154)=  2.2791E-22
  PIVOT(155)=  3.6426E-22
  PIVOT(156)=  3.0225E-22
  PIVOT(157)=  3.3080E-22
  PIVOT(158)=  1.9003E-22
  PIVOT(159)=  4.9813E-22
  PIVOT(160)=  3.9131E-22
  PIVOT(161)=  2.3628E-22
  PIVOT(162)=  3.3787E-22
  PIVOT(163)=  3.1502E-22
  PIVOT(164)=  4.7962E-22
  PIVOT(165)=  5.4665E-22
  PIVOT(166)=  1.5640E-22
  PIVOT(167)=  3.5992E-22
  PIVOT(168)=  1.7413E-22
  PIVOT(169)=  4.0047E-22
  PIVOT(170)=  3.3860E-22
  PIVOT(171)=  1.4585E-22
  PIVOT(172)=  2.3244E-22
  PIVOT(173)=  4.7241E-22
  PIVOT(174)=  1.4291E-22
  PIVOT(175)=  1.0086E-21
  PIVOT(176)=  5.1520E-22
  PIVOT(177)=  4.9953E-22
  PIVOT(178)=  3.9535E-22
  PIVOT(179)=  3.4595E-22
  PIVOT(180)=  2.8774E-22
  PIVOT(181)=  1.2757E-21
  PIVOT(182)=  2.8912E-22
  PIVOT(183)=  3.2506E-22
  PIVOT(184)=  9.2143E-22
  PIVOT(185)=  4.6464E-22
  PIVOT(186)=  1.6779E-22
  PIVOT(187)=  2.3338E-22
  PIVOT(188)=  5.0373E-22
  PIVOT(189)=  9.6635E-23
  PIVOT(190)=  8.2242E-22
  PIVOT(191)=  9.7494E-22
  PIVOT(192)=  4.7890E-22
  PIVOT(193)=  3.5615E-22
  PIVOT(194)=  6.9462E-22
  PIVOT(195)=  2.4113E-22
  PIVOT(196)=  1.2716E-22
  PIVOT(197)=  2.8244E-22
  PIVOT(198)=  3.4692E-22
  PIVOT(199)=  1.1985E-21
  PIVOT(200)=  5.8182E-22
  PIVOT(201)=  4.8452E-22
  PIVOT(202)=  2.0996E-22
  PIVOT(203)=  2.7223E-22
  PIVOT(204)=  4.8567E-22
  PIVOT(205)=  2.1640E-22
  PIVOT(206)=  1.9608E-22
  PIVOT(207)=  3.7936E-22
  PIVOT(208)=  7.9677E-22
  PIVOT(209)=  3.0472E-22
  PIVOT(210)=  2.4882E-22
  PIVOT(211)=  3.2687E-22
  PIVOT(212)=  2.9090E-22
  PIVOT(213)=  3.7393E-22
  PIVOT(214)=  3.5323E-22
  PIVOT(215)=  6.1982E-22
  PIVOT(216)=  1.6406E-22
  PIVOT(217)=  2.3217E-22
  PIVOT(218)=  3.4890E-22
  PIVOT(219)=  2.6549E-22
  PIVOT(220)=  2.9451E-22
  PIVOT(221)=  1.2761E-21
  PIVOT(222)=  1.9509E-22
  PIVOT(223)=  4.7836E-22
  PIVOT(224)=  1.4802E-22
  PIVOT(225)=  2.9855E-22
  PIVOT(226)=  2.3282E-22
  PIVOT(227)=  5.8253E-22
  PIVOT(228)=  1.3538E-21
  PIVOT(229)=  3.4281E-22
  PIVOT(230)=  1.2097E-21
  PIVOT(231)=  5.9358E-22
  PIVOT(232)=  8.0220E-22
  PIVOT(233)=  2.7242E-22
  PIVOT(234)=  1.9084E-22
  PIVOT(235)=  2.4818E-22
  PIVOT(236)=  4.9932E-22
  PIVOT(237)=  2.5978E-22
  PIVOT(238)=  2.2302E-22
  PIVOT(239)=  1.6979E-22
  PIVOT(240)=  8.2923E-22
  PIVOT(241)=  3.0339E-22
  PIVOT(242)=  3.9171E-22
  PIVOT(243)=  4.8969E-22
  PIVOT(244)=  7.7869E-22
  PIVOT(245)=  5.6200E-22
  PIVOT(246)=  4.2501E-22
  PIVOT(247)=  3.0120E-22
  PIVOT(248)=  4.7567E-22
  PIVOT(249)=  3.2577E-22
  PIVOT(250)=  5.2109E-22
  PIVOT(251)=  5.0523E-22
  PIVOT(252)=  4.1020E-22
  PIVOT(253)=  5.3499E-22
  PIVOT(254)=  2.0014E-22
  PIVOT(255)=  7.0238E-22
  PIVOT(256)=  7.2595E-22
  PIVOT(257)=  2.9148E-22
  PIVOT(258)=  3.6147E-22
  PIVOT(259)=  2.0759E-22
  PIVOT(260)=  1.0944E-21
  PIVOT(261)=  3.5884E-22
  PIVOT(262)=  4.1582E-22
  PIVOT(263)=  3.4195E-22
  PIVOT(264)=  1.6182E-22
  PIVOT(265)=  3.5076E-22
  PIVOT(266)=  7.6453E-22
  PIVOT(267)=  6.4791E-22
  PIVOT(268)=  3.8983E-22
  PIVOT(269)=  4.9277E-22
  PIVOT(270)=  2.3928E-22
  PIVOT(271)=  2.7202E-22
  PIVOT(272)=  4.7857E-22
  PIVOT(273)=  3.5323E-22
  PIVOT(274)=  4.6151E-22
  PIVOT(275)=  4.0341E-22
  PIVOT(276)=  3.3558E-22
  PIVOT(277)=  5.4493E-22
  PIVOT(278)=  5.2598E-22
  PIVOT(279)=  3.9633E-22
  PIVOT(280)=  3.4887E-22
  PIVOT(281)=  3.5110E-22
  PIVOT(282)=  4.6520E-22
  PIVOT(283)=  8.7381E-22
  PIVOT(284)=  4.9396E-22
  PIVOT(285)=  3.6133E-22
  PIVOT(286)=  4.6120E-22
  PIVOT(287)=  2.8912E-22
  PIVOT(288)=  6.6656E-22
  PIVOT(289)=  3.5238E-22
  PIVOT(290)=  3.8512E-22
  PIVOT(291)=  1.7222E-22
  PIVOT(292)=  9.3615E-22
  PIVOT(293)=  1.8886E-22
  PIVOT(294)=  1.3465E-21
  PIVOT(295)=  3.0757E-22
  PIVOT(296)=  4.5914E-22
  PIVOT(297)=  5.7614E-22
  PIVOT(298)=  5.8474E-22
  PIVOT(299)=  1.7990E-22
  PIVOT(300)=  5.8019E-22
  PIVOT(301)=  3.9799E-22
  PIVOT(302)=  4.1212E-22
  PIVOT(303)=  4.7935E-22
  PIVOT(304)=  3.6752E-22
  PIVOT(305)=  3.1533E-22
  PIVOT(306)=  5.3305E-22
  PIVOT(307)=  4.0799E-22
  PIVOT(308)=  1.3499E-21
  PIVOT(309)=  8.4329E-22
  PIVOT(310)=  3.8541E-22
  PIVOT(311)=  2.0710E-22
  PIVOT(312)=  3.1558E-22
  PIVOT(313)=  2.2488E-22
  PIVOT(314)=  3.2341E-22
  PIVOT(315)=  5.3327E-22
  PIVOT(316)=  4.8635E-22
  PIVOT(317)=  1.8901E-22
  PIVOT(318)=  6.2832E-22
  PIVOT(319)=  2.6811E-22
  PIVOT(320)=  3.4430E-22
  PIVOT(321)=  2.3789E-22
  PIVOT(322)=  1.4493E-22
  PIVOT(323)=  6.4116E-22
  PIVOT(324)=  3.3490E-22
  PIVOT(325)=  1.2369E-22
  PIVOT(326)=  3.5180E-22
  PIVOT(327)=  2.7316E-22
  PIVOT(328)=  3.2102E-22
  PIVOT(329)=  3.4080E-22
  PIVOT(330)=  5.9325E-22
  PIVOT(331)=  4.5644E-22
  PIVOT(332)=  7.7943E-22
  PIVOT(333)=  3.6517E-22
  PIVOT(334)=  4.8182E-22
  PIVOT(335)=  5.3558E-22
  PIVOT(336)=  4.4094E-22
  PIVOT(337)=  5.2890E-22
  PIVOT(338)=  1.8977E-22
  PIVOT(339)=  9.7808E-22
  PIVOT(340)=  6.1548E-22
  PIVOT(341)=  4.7578E-22
  PIVOT(342)=  3.0670E-22
  PIVOT(343)=  3.1182E-22
  PIVOT(344)=  3.2991E-22
  PIVOT(345)=  4.5742E-22
  PIVOT(346)=  5.1700E-22
  PIVOT(347)=  3.7775E-22
  PIVOT(348)=  6.2795E-22
  PIVOT(349)=  2.7968E-22
  PIVOT(350)=  9.2575E-22
  PIVOT(351)=  7.7183E-22
  PIVOT(352)=  4.5801E-22
  PIVOT(353)=  5.1880E-22
  PIVOT(354)=  4.3176E-22
  PIVOT(355)=  5.6289E-22
  PIVOT(356)=  6.0823E-22
  PIVOT(357)=  4.3236E-22
  PIVOT(358)=  2.7772E-22
  PIVOT(359)=  6.7324E-22
  PIVOT(360)=  3.8749E-22
  PIVOT(361)=  2.6056E-22
  PIVOT(362)=  5.0135E-22
  PIVOT(363)=  2.4682E-22
  PIVOT(364)=  6.7930E-22
  PIVOT(365)=  6.4470E-22
  PIVOT(366)=  4.0971E-22
  PIVOT(367)=  1.7863E-22
  PIVOT(368)=  9.3242E-22
  PIVOT(369)=  4.6026E-22
  PIVOT(370)=  3.3505E-22
  PIVOT(371)=  9.6668E-22
  PIVOT(372)=  2.8413E-22
  PIVOT(373)=  4.2074E-22
  PIVOT(374)=  4.4417E-22
  PIVOT(375)=  3.8526E-22
  PIVOT(376)=  2.7710E-22
  PIVOT(377)=  2.7824E-22
  PIVOT(378)=  4.0800E-22
  PIVOT(379)=  3.0692E-22
  PIVOT(380)=  3.2539E-22
  PIVOT(381)=  2.5305E-22
  PIVOT(382)=  1.8009E-22
  PIVOT(383)=  1.9052E-21
  PIVOT(384)=  2.4181E-22
  PIVOT(385)=  8.3260E-22
  PIVOT(386)=  2.6852E-22
  PIVOT(387)=  5.3287E-22
  PIVOT(388)=  7.6765E-22
  PIVOT(389)=  5.6870E-22
  PIVOT(390)=  3.8522E-22
  PIVOT(391)=  4.5247E-22
  PIVOT(392)=  4.6082E-22
  PIVOT(393)=  8.7585E-22
  PIVOT(394)=  7.4272E-22
  PIVOT(395)=  3.2635E-22
  PIVOT(396)=  6.8770E-22
  PIVOT(397)=  4.3762E-22
  PIVOT(398)=  3.1173E-22
  PIVOT(399)=  2.3875E-22
  PIVOT(400)=  3.4965E-22
  PIVOT(401)=  6.2412E-22
  PIVOT(402)=  2.1330E-22
  PIVOT(403)=  3.6557E-22
  PIVOT(404)=  4.9766E-22
  PIVOT(405)=  3.9415E-22
  PIVOT(406)=  7.4837E-22
  PIVOT(407)=  5.4646E-22
  PIVOT(408)=  3.6502E-22
  PIVOT(409)=  4.8835E-22
  PIVOT(410)=  3.2012E-22
  PIVOT(411)=  2.9899E-22
  PIVOT(412)=  3.6130E-22
  PIVOT(413)=  5.2778E-22
  PIVOT(414)=  5.2442E-22
  PIVOT(415)=  6.5870E-22
  PIVOT(416)=  8.7728E-22
  PIVOT(417)=  5.2866E-22
  PIVOT(418)=  4.9938E-22
  PIVOT(419)=  3.5058E-22
  PIVOT(420)=  6.1736E-22
  PIVOT(421)=  3.8038E-22
  PIVOT(422)=  3.7019E-22
  PIVOT(423)=  1.4134E-21
  PIVOT(424)=  3.1519E-22
  PIVOT(425)=  4.5443E-22
  PIVOT(426)=  2.4420E-22
  PIVOT(427)=  5.0845E-22
  PIVOT(428)=  1.2799E-21
  PIVOT(429)=  1.5543E-21
  PIVOT(430)=  4.4901E-22
  PIVOT(431)=  2.2368E-22
  PIVOT(432)=  1.0117E-21
  PIVOT(433)=  4.2267E-22
  PIVOT(434)=  4.5001E-22
  PIVOT(435)=  3.7922E-22
  PIVOT(436)=  7.3090E-22
  PIVOT(437)=  7.9494E-22
  PIVOT(438)=  7.2543E-22
  PIVOT(439)=  1.2705E-21
  PIVOT(440)=  2.5045E-22
  PIVOT(441)=  8.0713E-22
  PIVOT(442)=  1.6637E-22
  PIVOT(443)=  5.1990E-22
  PIVOT(444)=  5.5163E-22
  PIVOT(445)=  3.9798E-22
  PIVOT(446)=  3.6510E-22
  PIVOT(447)=  4.5601E-22
  PIVOT(448)=  2.5636E-22
  PIVOT(449)=  4.3562E-22
  PIVOT(450)=  6.4575E-22
  PIVOT(451)=  4.5023E-22
  PIVOT(452)=  1.1087E-21
  PIVOT(453)=  2.2676E-22
  PIVOT(454)=  4.9458E-22
  PIVOT(455)=  6.6138E-22
  PIVOT(456)=  2.6919E-22
  PIVOT(457)=  5.7915E-22
  PIVOT(458)=  4.4020E-22
  PIVOT(459)=  3.2085E-22
  PIVOT(460)=  3.6031E-22
  PIVOT(461)=  4.0350E-22
  PIVOT(462)=  8.0579E-22
  PIVOT(463)=  4.0609E-22
  PIVOT(464)=  4.1939E-22
  PIVOT(465)=  2.0897E-22
  PIVOT(466)=  5.2579E-22
  PIVOT(467)=  4.2283E-22
  PIVOT(468)=  4.2541E-22
  PIVOT(469)=  8.5323E-22
  PIVOT(470)=  4.7495E-22
  PIVOT(471)=  7.6888E-22
  PIVOT(472)=  7.2444E-22
  PIVOT(473)=  9.2303E-22
  PIVOT(474)=  4.8901E-22
  PIVOT(475)=  6.9075E-22
  PIVOT(476)=  4.3853E-22
  PIVOT(477)=  5.7112E-22
  PIVOT(478)=  1.3583E-21
  PIVOT(479)=  4.5804E-22
  PIVOT(480)=  4.0999E-22
  PIVOT(481)=  2.4352E-22
  PIVOT(482)=  5.1341E-22
  PIVOT(483)=  8.5593E-22
  PIVOT(484)=  7.6656E-22
  PIVOT(485)=  4.8714E-22
  PIVOT(486)=  5.4691E-22
  PIVOT(487)=  4.8710E-22
[...]
   591    0   69.9867   15.0685   10.3731   0.09252 -2.2693E+13 -6.5479E+13  6.9300E+13 -109.115
   592    0   70.0267   15.0455   10.2929   0.09252 -1.2500E+14 -7.6931E+13  1.4678E+14 -148.390
   593    0   70.0667   15.0225   10.2127   0.09252  6.1920E+13  8.5761E+13  1.0578E+14   54.170
   594    0   70.1067   14.9995   10.1326   0.09252  5.1175E+13  7.0229E+13  8.6896E+13   53.920
   595    0   70.1468   14.9765   10.0524   0.09252 -2.0558E+13 -9.9335E+12  2.2832E+13 -154.210
   596    0   70.1868   14.9535    9.9722   0.09252  1.0929E+13 -7.4355E+13  7.5154E+13  -81.638
   597    0   70.2268   14.9305    9.8920   0.09252 -1.1737E+13 -2.4519E+13  2.7183E+13 -115.581
   598    0   70.2668   14.9074    9.8119   0.09252 -1.2435E+13  3.7994E+13  3.9977E+13  108.123
   599    0   70.3069   14.8844    9.7317   0.09252 -5.2576E+13 -1.3799E+13  5.4357E+13 -165.293
   600    0   70.3469   14.8614    9.6515   0.09252  1.0235E+14  7.4229E+13  1.2643E+14   35.952
   601    0   70.3869   14.8384    9.5713   0.09252 -4.4696E+13 -4.5597E+13  6.3850E+13 -134.429
   602    0   70.4270   14.8154    9.4911   0.09252  2.6979E+12 -7.0828E+11  2.7894E+12  -14.710
   603    0   70.4670   14.7924    9.4110   0.09252 -1.1334E+13 -1.7985E+13  2.1258E+13 -122.219
   604    0   70.5070   14.7693    9.3308   0.09252  4.2146E+13 -1.5908E+13  4.5049E+13  -20.679
   605    0   70.5470   14.7463    9.2506   0.09252 -7.7373E+13  7.2960E+12  7.7716E+13  174.613
   606    0   70.5871   14.7233    9.1704   0.09252  4.1599E+13  4.3528E+13  6.0209E+13   46.298
   607    0   70.6271   14.7003    9.0902   0.09252  4.6205E+13  2.1088E+13  5.0790E+13   24.532
   608    0   70.6671   14.6773    9.0101   0.09252 -6.2910E+13 -4.6698E+13  7.8347E+13 -143.414
   609    0   70.7071   14.6543    8.9299   0.09252 -1.0746E+13 -4.8731E+13  4.9902E+13 -102.436
   610    0   70.7472   14.6313    8.8497   0.09252  3.4565E+13  6.4248E+13  7.2956E+13   61.720
   611    0   70.7872   14.6082    8.7695   0.09252  6.7950E+13  5.0882E+12  6.8140E+13    4.282
   612    0   70.8272   14.5852    8.6894   0.09252 -9.8016E+13 -3.4413E+13  1.0388E+14 -160.654
   613    0   70.8672   14.5622    8.6092   0.09252 -4.5031E+13  4.5243E+12  4.5258E+13  174.263
   614    0   70.9073   14.5392    8.5290   0.09252  1.0029E+14  2.9861E+13  1.0464E+14   16.581
   615    0   70.9473   14.5162    8.4488   0.09252 -1.9518E+13  1.3568E+13  2.3770E+13  145.195
   616    0   70.9873   14.4932    8.3686   0.09252  1.0484E+13 -4.8990E+13  5.0099E+13  -77.921
   617    0   71.0274   14.4701    8.2885   0.09252  8.7555E+12  5.7718E+12  1.0487E+13   33.394
   618    0   71.0674   14.4471    8.2083   0.09252 -7.2853E+13 -5.4306E+13  9.0866E+13 -143.299
   619    0   71.1074   14.4241    8.1281   0.09252  2.1472E+12  1.0991E+14  1.0993E+14   88.881
   620    0   71.1474   14.4011    8.0479   0.09252  5.6499E+13  3.5750E+13  6.6860E+13   32.324
   621    0   71.1875   14.3781    7.9677   0.09252  2.2514E+13 -1.0220E+14  1.0465E+14  -77.577
   622    0   71.2275   14.3551    7.8876   0.09252 -1.2300E+13 -3.8254E+13  4.0183E+13 -107.825
   623    0   71.2675   14.3321    7.8074   0.09252 -2.9421E+13  2.3467E+13  3.7633E+13  141.423
   624    0   71.3075   14.3090    7.7272   0.09252 -6.4704E+13  8.8543E+13  1.0967E+14  126.158
   625    0   71.3476   14.2860    7.6470   0.09252  6.1836E+13  1.1130E+13  6.2830E+13   10.204
   626    0   71.3876   14.2630    7.5669   0.09252  6.1719E+13 -1.0630E+14  1.2292E+14  -59.860
   627    0   71.4276   14.2400    7.4867   0.09252 -3.2156E+13  1.8362E+13  3.7029E+13  150.272
   628    0   71.4676   14.2170    7.4065   0.09252 -3.7324E+13 -1.5754E+12  3.7357E+13 -177.583
   629    0   71.5077   14.1940    7.3263   0.09252 -2.5904E+13  9.5550E+13  9.8999E+13  105.168
   630    0   71.5477   14.1709    7.2461   0.09252  4.2621E+13 -8.1334E+13  9.1825E+13  -62.344
   631    0   71.5877   14.1479    7.1660   0.09252  5.0177E+12 -2.4573E+13  2.5080E+13  -78.459
   632    0   71.6278   14.1249    7.0858   0.09252  4.8899E+13  7.4139E+13  8.8813E+13   56.593
   633    0   71.6678   14.1019    7.0056   0.09252 -9.4347E+13 -5.9501E+13  1.1154E+14 -147.762
   634    0   71.7078   14.0789    6.9254   0.09252 -3.8631E+12  3.6196E+13  3.6402E+13   96.092
   635    0   71.7478   14.0559    6.8453   0.09252  9.5217E+13 -2.6857E+13  9.8932E+13  -15.751
   636    0   71.7879   14.0329    6.7651   0.09252 -5.8093E+13  3.0769E+13  6.5739E+13  152.092
   637    0   71.8279   14.0098    6.6849   0.09252 -1.3200E+13 -3.2338E+13  3.4929E+13 -112.205
   638    0   71.8679   13.9868    6.6047   0.09252  2.9999E+13  2.1931E+13  3.7161E+13   36.170
   639    0   71.9079   13.9638    6.5245   0.09252 -1.4440E+13 -8.7975E+12  1.6908E+13 -148.648
   640    0   71.9480   13.9408    6.4444   0.09252  2.9191E+12  1.7785E+12  3.4182E+12   31.352


                               ---------- POWER BUDGET ---------
                               INPUT POWER   = -1.4215E+13 Watts
                               RADIATED POWER= -1.4215E+13 Watts
                               STRUCTURE LOSS=  0.0000E+00 Watts
                               NETWORK LOSS  =  0.0000E+00 Watts
                               EFFICIENCY    =  100.00 Percent


                             ---------- RADIATION PATTERNS -----------

 ---- ANGLES -----     ----- POWER GAINS -----       ---- POLARIZATION ----   ---- E(THETA) ----    ----- E(PHI) ------
  THETA      PHI       MAJOR    MINOR    TOTAL       AXIAL      TILT  SENSE   MAGNITUDE    PHASE    MAGNITUDE     PHASE
 DEGREES   DEGREES        DB       DB       DB       RATIO   DEGREES            VOLTS/M   DEGREES     VOLTS/M   DEGREES
    0.00     90.00   -999.99  -999.99  -999.99      0.0000     60.10 LINEAR  3.4959E+12   -155.16  6.0798E+12   -155.16
    1.00     90.00   -999.99  -999.99  -999.99      0.0106     58.71   LEFT  3.5995E+12    -43.05  5.9218E+12    -41.69
    2.00     90.00   -999.99  -999.99  -999.99      0.0833     49.64  RIGHT  1.9262E+12     79.31  2.2610E+12     69.66
    3.00     90.00   -999.99  -999.99  -999.99      0.0303     67.56   LEFT  2.0802E+12     47.50  5.0243E+12     52.42
    4.00     90.00   -999.99  -999.99  -999.99      0.0023     61.19  RIGHT  5.9247E+12   -171.95  1.0773E+13   -172.26
    5.00     90.00   -999.99  -999.99  -999.99      0.0391     58.44  RIGHT  6.0098E+12    -20.67  9.7653E+12    -25.68
    6.00     90.00   -999.99  -999.99  -999.99      0.0698     57.51  RIGHT  1.7823E+12    154.04  2.7848E+12    145.24
    7.00     90.00   -999.99  -999.99  -999.99      0.2055     43.53  RIGHT  3.1789E+12     98.03  3.0328E+12     74.78
    8.00     90.00   -999.99  -999.99  -999.99      0.3149     16.11   LEFT  3.3696E+12    -76.42  1.4338E+12    -23.74
    9.00     90.00   -999.99  -999.99  -999.99      0.0085     71.26  RIGHT  2.5035E+12   -166.91  7.3781E+12   -168.51
   10.00     90.00   -999.99  -999.99  -999.99      0.5212     55.22  RIGHT  4.6968E+12     44.56  5.7524E+12    -12.22
   11.00     90.00   -999.99  -999.99  -999.99      0.4026    -83.71   LEFT  1.9034E+12    -94.79  4.5640E+12      7.99
   12.00     90.00   -999.99  -999.99  -999.99      0.3331     62.85  RIGHT  4.5666E+12   -157.44  7.5766E+12    159.86
   13.00     90.00   -999.99  -999.99  -999.99      0.2240    -11.64   LEFT  4.0610E+12     42.80  1.2343E+12    172.75
   14.00     90.00   -999.99  -999.99  -999.99      0.3383     66.25  RIGHT  3.4137E+12     13.51  6.2171E+12    -32.51
   15.00     90.00   -999.99  -999.99  -999.99      0.2652      9.87   LEFT  5.4011E+12   -143.39  1.7111E+12    -84.02
   16.00     90.00   -999.99  -999.99  -999.99      0.5659     73.91  RIGHT  2.8128E+12   -161.86  4.4870E+12    125.88
   17.00     90.00   -999.99  -999.99  -999.99      0.5060     35.95   LEFT  5.9394E+12     42.54  4.9310E+12     97.59
   18.00     90.00   -999.99  -999.99  -999.99      0.2569    -32.91  RIGHT  3.5131E+12     35.19  2.4133E+12   -113.72
   19.00     90.00   -999.99  -999.99  -999.99      0.2189     62.77   LEFT  5.2049E+12   -120.42  9.3680E+12    -90.95
   20.00     90.00   -999.99  -999.99  -999.99      0.7107     75.68   LEFT  4.6976E+12   -127.31  6.3222E+12    -46.78
   21.00     90.00   -999.99  -999.99  -999.99      0.3288     73.90  RIGHT  3.9215E+12    112.96  9.0040E+12     58.82
   22.00     90.00   -999.99  -999.99  -999.99      0.0819     68.30  RIGHT  4.6659E+12    107.22  1.1492E+13     93.72
   23.00     90.00   -999.99  -999.99  -999.99      0.1689    -57.75   LEFT  3.3733E+12    -34.61  5.1933E+12    124.32
   24.00     90.00   -999.99  -999.99  -999.99      0.1930      1.87  RIGHT  8.3576E+12    -25.94  1.6356E+12   -106.68
   25.00     90.00   -999.99  -999.99  -999.99      0.4733     -8.64  RIGHT  3.5733E+12    -13.63  1.7718E+12   -117.31
   26.00     90.00   -999.99  -999.99  -999.99      0.1760     38.07  RIGHT  5.0766E+12   -144.77  4.0371E+12   -165.28
   27.00     90.00   -999.99  -999.99  -999.99      0.4840     19.93  RIGHT  7.3703E+12   -119.79  4.3898E+12    177.10
   28.00     90.00   -999.99  -999.99  -999.99      0.1532    -71.52  RIGHT  2.4234E+12    -73.94  6.6019E+12    133.62
   29.00     90.00   -999.99  -999.99  -999.99      0.1610     73.71   LEFT  3.4885E+12    104.28  1.0466E+13    135.83
   30.00     90.00   -999.99  -999.99  -999.99      0.0228     63.28   LEFT  4.0817E+12    147.58  8.1015E+12    150.83
   31.00     90.00   -999.99  -999.99  -999.99      0.4981     80.15  RIGHT  8.3748E+11    149.39  1.5935E+12     73.67
   32.00     90.00   -999.99  -999.99  -999.99      0.3745     70.62  RIGHT  4.1788E+12     85.15  8.2037E+12     30.85
   33.00     90.00   -999.99  -999.99  -999.99      0.8182     72.81  RIGHT  7.0663E+12    122.40  8.3330E+12     38.91
   34.00     90.00   -999.99  -999.99  -999.99      0.5406    -35.35  RIGHT  3.8897E+12    144.12  3.2390E+12     22.41
   35.00     90.00   -999.99  -999.99  -999.99      0.1269     -1.24  RIGHT  5.4118E+12     16.25  6.9698E+11    -83.29
   36.00     90.00   -999.99  -999.99  -999.99      0.3863    -10.56   LEFT  1.0399E+13     28.35  4.4491E+12    139.99
   37.00     90.00   -999.99  -999.99  -999.99      0.7892     64.79   LEFT  5.4186E+12     49.63  6.2906E+12    129.20
   38.00     90.00   -999.99  -999.99  -999.99      0.5251    -44.20  RIGHT  2.1160E+12    140.41  2.0830E+12     15.82
   39.00     90.00   -999.99  -999.99  -999.99      0.5524    -62.99  RIGHT  5.3046E+12     85.62  7.3317E+12    -31.35
   40.00     90.00   -999.99  -999.99  -999.99      0.1870      2.94  RIGHT  9.0470E+12     72.74  1.7539E+12     -2.46
   41.00     90.00   -999.99  -999.99  -999.99      0.2515     70.69  RIGHT  2.9626E+12    138.33  6.8952E+12     97.63
   42.00     90.00   -999.99  -999.99  -999.99      0.3181    -37.85  RIGHT  6.6763E+12   -161.58  5.4427E+12     54.57
   43.00     90.00   -999.99  -999.99  -999.99      0.0259      0.04   LEFT  2.6114E+12     71.33  6.7702E+10    159.94
   44.00     90.00   -999.99  -999.99  -999.99      0.3912    -77.06   LEFT  3.6666E+12     18.14  8.1152E+12    133.42
   45.00     90.00   -999.99  -999.99  -999.99      0.4204     29.62  RIGHT  5.9777E+12    176.85  4.1108E+12    126.93
   46.00     90.00   -999.99  -999.99  -999.99      0.2626    -87.06   LEFT  2.1441E+12    123.91  8.0128E+12   -135.80
   47.00     90.00   -999.99  -999.99  -999.99      0.5877    -20.07  RIGHT  4.8982E+12    -58.51  3.3143E+12   -168.26
   48.00     90.00   -999.99  -999.99  -999.99      0.0837    -47.55   LEFT  4.7292E+12    127.90  5.1639E+12    -61.71
   49.00     90.00   -999.99  -999.99  -999.99      0.0391    -74.67  RIGHT  1.2464E+12     34.47  4.5020E+12   -136.79
   50.00     90.00   -999.99  -999.99  -999.99      0.6093    -40.44   LEFT  6.1994E+12   -146.31  5.7643E+12    -29.31
   51.00     90.00   -999.99  -999.99  -999.99      0.6888     32.63  RIGHT  4.8810E+12      8.03  4.2002E+12    -62.86
   52.00     90.00   -999.99  -999.99  -999.99      0.0415    -77.91  RIGHT  1.6695E+12   -164.50  7.6527E+12     26.97
   53.00     90.00   -999.99  -999.99  -999.99      0.0111      8.57   LEFT  5.1498E+12     85.81  7.7809E+11     90.11
   54.00     90.00   -999.99  -999.99  -999.99      0.2483    -33.87  RIGHT  7.5093E+12   -155.28  5.3011E+12     54.48
   55.00     90.00   -999.99  -999.99  -999.99      0.0467    -55.58  RIGHT  1.4504E+12    -23.98  2.1129E+12    161.74
   56.00     90.00   -999.99  -999.99  -999.99      0.1569    -36.60  RIGHT  5.8437E+12   -150.48  4.4057E+12     48.09
   57.00     90.00   -999.99  -999.99  -999.99      0.2159    -52.96  RIGHT  3.9246E+12    -60.36  5.0664E+12    144.86
   58.00     90.00   -999.99  -999.99  -999.99      0.2084     -0.07   LEFT  4.8760E+12   -148.94  1.0160E+12    -58.61
   59.00     90.00   -999.99  -999.99  -999.99      0.0225    -17.58  RIGHT  1.0312E+13    -70.68  3.2756E+12    113.78
   60.00     90.00   -999.99  -999.99  -999.99      0.1762     -8.81  RIGHT  6.8545E+12      3.04  1.6081E+12   -126.74
   61.00     90.00   -999.99  -999.99  -999.99      0.2794    -78.65   LEFT  1.3295E+12    -66.39  3.8701E+12     56.09
   62.00     90.00   -999.99  -999.99  -999.99      0.2255    -45.79   LEFT  5.5028E+12    -18.88  5.6424E+12    135.69
   63.00     90.00   -999.99  -999.99  -999.99      0.3975    -41.08   LEFT  3.2770E+12     68.42  2.9666E+12   -155.21
   64.00     90.00   -999.99  -999.99  -999.99      0.1312    -20.57  RIGHT  4.0730E+12   -119.89  1.6171E+12     82.21
   65.00     90.00   -999.99  -999.99  -999.99      0.0571    -30.86  RIGHT  7.1160E+12    -43.41  4.2687E+12    144.00
   66.00     90.00   -999.99  -999.99  -999.99      0.0296    -33.84  RIGHT  4.9864E+12     19.32  3.3458E+12   -157.02
   67.00     90.00   -999.99  -999.99  -999.99      0.3202    -21.73   LEFT  1.2204E+12   -163.74  6.1897E+11    -29.80
   68.00     90.00   -999.99  -999.99  -999.99      0.0209    -25.78   LEFT  6.0965E+12    -76.69  2.9476E+12    100.26
   69.00     90.00   -999.99  -999.99  -999.99      0.0222    -25.93   LEFT  7.4936E+12    -27.53  3.6477E+12    149.23
   70.00     90.00   -999.99  -999.99  -999.99      0.0432    -22.92   LEFT  4.7852E+12     21.73  2.0333E+12   -165.14
   71.00     90.00   -999.99  -999.99  -999.99      0.3698    -20.81  RIGHT  1.4605E+12    148.05  7.6702E+11     20.26
   72.00     90.00   -999.99  -999.99  -999.99      0.0755    -31.00  RIGHT  4.8709E+12   -118.25  2.9471E+12     71.51
   73.00     90.00   -999.99  -999.99  -999.99      0.0297    -29.72  RIGHT  6.4430E+12    -80.11  3.6831E+12    103.84
   74.00     90.00   -999.99  -999.99  -999.99      0.0006    -29.52   LEFT  5.0267E+12    -46.84  2.8460E+12    133.09
   75.00     90.00   -999.99  -999.99  -999.99      0.0933    -31.28   LEFT  1.7422E+12      2.44  1.0692E+12    170.48
   76.00     90.00   -999.99  -999.99  -999.99      0.0184    -22.02   LEFT  2.6509E+12    148.08  1.0734E+12    -34.94
   77.00     90.00   -999.99  -999.99  -999.99      0.0269    -24.90   LEFT  5.3178E+12    178.80  2.4729E+12     -5.24
   78.00     90.00   -999.99  -999.99  -999.99      0.0407    -26.06   LEFT  6.1563E+12   -162.67  3.0202E+12     11.42
   79.00     90.00   -999.99  -999.99  -999.99      0.0435    -26.81   LEFT  5.1958E+12   -148.53  2.6350E+12     25.28
   80.00     90.00   -999.99  -999.99  -999.99      0.0263    -25.53   LEFT  3.1662E+12   -135.13  1.5145E+12     41.00
   81.00     90.00   -999.99  -999.99  -999.99      0.1997    -11.41  RIGHT  1.1454E+12    -94.71  3.2491E+11    132.31
   82.00     90.00   -999.99  -999.99  -999.99      0.3316    -34.42  RIGHT  1.9585E+12     -6.28  1.4538E+12   -147.66
   83.00     90.00   -999.99  -999.99  -999.99      0.2905    -26.03  RIGHT  4.0049E+12      4.63  2.2529E+12   -136.54
   84.00     90.00   -999.99  -999.99  -999.99      0.2316    -16.91  RIGHT  5.8530E+12      6.96  2.2315E+12   -131.71
   85.00     90.00   -999.99  -999.99  -999.99      0.1195    -10.03  RIGHT  6.9074E+12     10.15  1.4743E+12   -134.62
   86.00     90.00   -999.99  -999.99  -999.99      0.0222     -4.76   LEFT  6.6814E+12     16.27  5.7573E+11   -178.77
   87.00     90.00   -999.99  -999.99  -999.99      0.1764      2.20   LEFT  5.2632E+12     28.25  9.5025E+11    106.36
   88.00     90.00   -999.99  -999.99  -999.99      0.2172     15.46   LEFT  3.5991E+12     53.71  1.2633E+12     95.30
   89.00     90.00   -999.99  -999.99  -999.99      0.0118     15.87   LEFT  3.0814E+12     90.56  8.7679E+11     93.13


                              ---------- NORMALIZED GAIN ----------
                                            TOTAL  GAIN
                                   NORMALIZATION FACTOR: -999.99 db

    ---- ANGLES ----                ---- ANGLES ----                ---- ANGLES ----
    THETA      PHI        GAIN      THETA      PHI        GAIN      THETA      PHI       GAIN
   DEGREES   DEGREES        DB     DEGREES   DEGREES        DB     DEGREES   DEGREES       DB
      0.00     90.00      0.00       30.00     90.00      0.00       60.00     90.00      0.00
      1.00     90.00      0.00       31.00     90.00      0.00       61.00     90.00      0.00
      2.00     90.00      0.00       32.00     90.00      0.00       62.00     90.00      0.00
      3.00     90.00      0.00       33.00     90.00      0.00       63.00     90.00      0.00
      4.00     90.00      0.00       34.00     90.00      0.00       64.00     90.00      0.00
      5.00     90.00      0.00       35.00     90.00      0.00       65.00     90.00      0.00
      6.00     90.00      0.00       36.00     90.00      0.00       66.00     90.00      0.00
      7.00     90.00      0.00       37.00     90.00      0.00       67.00     90.00      0.00
      8.00     90.00      0.00       38.00     90.00      0.00       68.00     90.00      0.00
      9.00     90.00      0.00       39.00     90.00      0.00       69.00     90.00      0.00
     10.00     90.00      0.00       40.00     90.00      0.00       70.00     90.00      0.00
     11.00     90.00      0.00       41.00     90.00      0.00       71.00     90.00      0.00
     12.00     90.00      0.00       42.00     90.00      0.00       72.00     90.00      0.00
     13.00     90.00      0.00       43.00     90.00      0.00       73.00     90.00      0.00
     14.00     90.00      0.00       44.00     90.00      0.00       74.00     90.00      0.00
     15.00     90.00      0.00       45.00     90.00      0.00       75.00     90.00      0.00
     16.00     90.00      0.00       46.00     90.00      0.00       76.00     90.00      0.00
     17.00     90.00      0.00       47.00     90.00      0.00       77.00     90.00      0.00
     18.00     90.00      0.00       48.00     90.00      0.00       78.00     90.00      0.00
     19.00     90.00      0.00       49.00     90.00      0.00       79.00     90.00      0.00
     20.00     90.00      0.00       50.00     90.00      0.00       80.00     90.00      0.00
     21.00     90.00      0.00       51.00     90.00      0.00       81.00     90.00      0.00
     22.00     90.00      0.00       52.00     90.00      0.00       82.00     90.00      0.00
     23.00     90.00      0.00       53.00     90.00      0.00       83.00     90.00      0.00
     24.00     90.00      0.00       54.00     90.00      0.00       84.00     90.00      0.00
     25.00     90.00      0.00       55.00     90.00      0.00       85.00     90.00      0.00
     26.00     90.00      0.00       56.00     90.00      0.00       86.00     90.00      0.00
     27.00     90.00      0.00       57.00     90.00      0.00       87.00     90.00      0.00
     28.00     90.00      0.00       58.00     90.00      0.00       88.00     90.00      0.00
     29.00     90.00      0.00       59.00     90.00      0.00       89.00     90.00      0.00



*****  DATA CARD N0.   5 EN   0     0     0     0  0.00000E+00  0.00000E+00  0.00000E+00  0.00000E+00  0.00000E+00  0.00000E+00

  TOTAL RUN TIME: 4110 msec