


                                __________________________________________
                               |                                          |
                               | NUMERICAL ELECTROMAGNETICS CODE (nec2++) |
                               | Translated to 'C++' in Double Precision  |
                               |        Version 1.1.0 [2005-01-20]        |
                               |__________________________________________|



                               ---------------- COMMENTS ----------------
                                *** Gruppenstrahler fuer 23 cm ***
                                *** mit 8 Strahler + 8 Direktoren ***
                                *** breitbandig Elemente 9 mm ***
                                * von dieser Version wurden 2 Antennen gebaut und gemessen *
                                * Antenne mit RADOM versehen (Beeintraechtigung = gering *
                               



                                -------- STRUCTURE SPECIFICATION --------
                                COORDINATES MUST BE INPUT IN
                                METERS OR BE SCALED TO METERS
                                BEFORE STRUCTURE INPUT IS ENDED
  WIRE                                                                                 SEG FIRST  LAST  TAG
   No:        X1         Y1         Z1         X2         Y2         Z2       RADIUS   No:   SEG   SEG  No:

     1      0.0050     0.0590     0.0590     0.0940     0.0590     0.0590     0.0045     5     1     5    1
     2      0.0050     0.1770     0.0590     0.0940     0.1770     0.0590     0.0045     5     6    10    2
     3      0.0080     0.0590     0.1160     0.0910     0.0590     0.1160     0.0045     5    11    15    3
     4      0.0080     0.1770     0.1160     0.0910     0.1770     0.1160     0.0045     5    16    20    4
     1R    0.00000     0.00000     0.00000     0.15000     0.00000     0.00000     SURFACE - 4 BY 8 PATCHES
          0.15000     0.25000     0.00000     0.00000     0.25000     0.00000
  STRUCTURE REFLECTED ALONG THE AXES X Y * - TAGS INCREMENTED BY 1


     TOTAL SEGMENTS USED: 80   SEGMENTS IN A SYMMETRIC CELL: 20   SYMMETRY FLAG: 1
       TOTAL PATCHES USED: 128   PATCHES IN A SYMMETRIC CELL: 32
  STRUCTURE HAS 2 PLANES OF SYMMETRY



                               ---------- SEGMENTATION DATA ----------
                                        COORDINATES IN METERS
                            I+ AND I- INDICATE THE SEGMENTS BEFORE AND AFTER I

   SEG    COORDINATES OF SEGM CENTER     SEGM    ORIENTATION ANGLES    WIRE    CONNECTION DATA   TAG
   No:       X         Y         Z      LENGTH     ALPHA      BETA    RADIUS    I-     I    I+   NO:
     1    0.0139    0.0590    0.0590    0.0178    0.0000    0.0000    0.0045     0     1     2     1
     2    0.0317    0.0590    0.0590    0.0178    0.0000    0.0000    0.0045     1     2     3     1
     3    0.0495    0.0590    0.0590    0.0178    0.0000    0.0000    0.0045     2     3     4     1
     4    0.0673    0.0590    0.0590    0.0178    0.0000    0.0000    0.0045     3     4     5     1
     5    0.0851    0.0590    0.0590    0.0178    0.0000    0.0000    0.0045     4     5     0     1
     6    0.0139    0.1770    0.0590    0.0178    0.0000    0.0000    0.0045     0     6     7     2
     7    0.0317    0.1770    0.0590    0.0178    0.0000    0.0000    0.0045     6     7     8     2
     8    0.0495    0.1770    0.0590    0.0178    0.0000    0.0000    0.0045     7     8     9     2
     9    0.0673    0.1770    0.0590    0.0178    0.0000    0.0000    0.0045     8     9    10     2
    10    0.0851    0.1770    0.0590    0.0178    0.0000    0.0000    0.0045     9    10     0     2
    11    0.0163    0.0590    0.1160    0.0166    0.0000    0.0000    0.0045     0    11    12     3
    12    0.0329    0.0590    0.1160    0.0166    0.0000    0.0000    0.0045    11    12    13     3
    13    0.0495    0.0590    0.1160    0.0166    0.0000    0.0000    0.0045    12    13    14     3
    14    0.0661    0.0590    0.1160    0.0166    0.0000    0.0000    0.0045    13    14    15     3
    15    0.0827    0.0590    0.1160    0.0166    0.0000    0.0000    0.0045    14    15     0     3
    16    0.0163    0.1770    0.1160    0.0166    0.0000    0.0000    0.0045     0    16    17     4
    17    0.0329    0.1770    0.1160    0.0166    0.0000    0.0000    0.0045    16    17    18     4
    18    0.0495    0.1770    0.1160    0.0166    0.0000    0.0000    0.0045    17    18    19     4
    19    0.0661    0.1770    0.1160    0.0166    0.0000    0.0000    0.0045    18    19    20     4
    20    0.0827    0.1770    0.1160    0.0166    0.0000    0.0000    0.0045    19    20     0     4
    21    0.0139   -0.0590    0.0590    0.0178    0.0000    0.0000    0.0045     0    21    22     2
    22    0.0317   -0.0590    0.0590    0.0178    0.0000    0.0000    0.0045    21    22    23     2
    23    0.0495   -0.0590    0.0590    0.0178    0.0000    0.0000    0.0045    22    23    24     2
    24    0.0673   -0.0590    0.0590    0.0178    0.0000    0.0000    0.0045    23    24    25     2
    25    0.0851   -0.0590    0.0590    0.0178    0.0000    0.0000    0.0045    24    25     0     2
    26    0.0139   -0.1770    0.0590    0.0178    0.0000    0.0000    0.0045     0    26    27     3
    27    0.0317   -0.1770    0.0590    0.0178    0.0000    0.0000    0.0045    26    27    28     3
    28    0.0495   -0.1770    0.0590    0.0178    0.0000    0.0000    0.0045    27    28    29     3
    29    0.0673   -0.1770    0.0590    0.0178    0.0000    0.0000    0.0045    28    29    30     3
    30    0.0851   -0.1770    0.0590    0.0178    0.0000    0.0000    0.0045    29    30     0     3
    31    0.0163   -0.0590    0.1160    0.0166    0.0000    0.0000    0.0045     0    31    32     4
    32    0.0329   -0.0590    0.1160    0.0166    0.0000    0.0000    0.0045    31    32    33     4
    33    0.0495   -0.0590    0.1160    0.0166    0.0000    0.0000    0.0045    32    33    34     4
    34    0.0661   -0.0590    0.1160    0.0166    0.0000    0.0000    0.0045    33    34    35     4
    35    0.0827   -0.0590    0.1160    0.0166    0.0000    0.0000    0.0045    34    35     0     4
    36    0.0163   -0.1770    0.1160    0.0166    0.0000    0.0000    0.0045     0    36    37     5
    37    0.0329   -0.1770    0.1160    0.0166    0.0000    0.0000    0.0045    36    37    38     5
    38    0.0495   -0.1770    0.1160    0.0166    0.0000    0.0000    0.0045    37    38    39     5
    39    0.0661   -0.1770    0.1160    0.0166    0.0000    0.0000    0.0045    38    39    40     5
    40    0.0827   -0.1770    0.1160    0.0166    0.0000    0.0000    0.0045    39    40     0     5
    41   -0.0139    0.0590    0.0590    0.0178    0.0000  180.0000    0.0045     0    41    42     3
    42   -0.0317    0.0590    0.0590    0.0178    0.0000  180.0000    0.0045    41    42    43     3
    43   -0.0495    0.0590    0.0590    0.0178    0.0000  180.0000    0.0045    42    43    44     3
    44   -0.0673    0.0590    0.0590    0.0178    0.0000  180.0000    0.0045    43    44    45     3
    45   -0.0851    0.0590    0.0590    0.0178    0.0000  180.0000    0.0045    44    45     0     3
    46   -0.0139    0.1770    0.0590    0.0178    0.0000  180.0000    0.0045     0    46    47     4
    47   -0.0317    0.1770    0.0590    0.0178    0.0000  180.0000    0.0045    46    47    48     4
    48   -0.0495    0.1770    0.0590    0.0178    0.0000  180.0000    0.0045    47    48    49     4
    49   -0.0673    0.1770    0.0590    0.0178    0.0000  180.0000    0.0045    48    49    50     4
    50   -0.0851    0.1770    0.0590    0.0178    0.0000  180.0000    0.0045    49    50     0     4
    51   -0.0163    0.0590    0.1160    0.0166    0.0000  180.0000    0.0045     0    51    52     5
    52   -0.0329    0.0590    0.1160    0.0166    0.0000  180.0000    0.0045    51    52    53     5
    53   -0.0495    0.0590    0.1160    0.0166    0.0000  180.0000    0.0045    52    53    54     5
    54   -0.0661    0.0590    0.1160    0.0166    0.0000  180.0000    0.0045    53    54    55     5
    55   -0.0827    0.0590    0.1160    0.0166    0.0000  180.0000    0.0045    54    55     0     5
    56   -0.0163    0.1770    0.1160    0.0166    0.0000  180.0000    0.0045     0    56    57     6
    57   -0.0329    0.1770    0.1160    0.0166    0.0000  180.0000    0.0045    56    57    58     6
    58   -0.0495    0.1770    0.1160    0.0166    0.0000  180.0000    0.0045    57    58    59     6
    59   -0.0661    0.1770    0.1160    0.0166    0.0000  180.0000    0.0045    58    59    60     6
    60   -0.0827    0.1770    0.1160    0.0166    0.0000  180.0000    0.0045    59    60     0     6
    61   -0.0139   -0.0590    0.0590    0.0178    0.0000  180.0000    0.0045     0    61    62     4
    62   -0.0317   -0.0590    0.0590    0.0178    0.0000  180.0000    0.0045    61    62    63     4
    63   -0.0495   -0.0590    0.0590    0.0178    0.0000  180.0000    0.0045    62    63    64     4
    64   -0.0673   -0.0590    0.0590    0.0178    0.0000  180.0000    0.0045    63    64    65     4
    65   -0.0851   -0.0590    0.0590    0.0178    0.0000  180.0000    0.0045    64    65     0     4
    66   -0.0139   -0.1770    0.0590    0.0178    0.0000  180.0000    0.0045     0    66    67     5
    67   -0.0317   -0.1770    0.0590    0.0178    0.0000  180.0000    0.0045    66    67    68     5
    68   -0.0495   -0.1770    0.0590    0.0178    0.0000  180.0000    0.0045    67    68    69     5
    69   -0.0673   -0.1770    0.0590    0.0178    0.0000  180.0000    0.0045    68    69    70     5
    70   -0.0851   -0.1770    0.0590    0.0178    0.0000  180.0000    0.0045    69    70     0     5
    71   -0.0163   -0.0590    0.1160    0.0166    0.0000  180.0000    0.0045     0    71    72     6
    72   -0.0329   -0.0590    0.1160    0.0166    0.0000  180.0000    0.0045    71    72    73     6
    73   -0.0495   -0.0590    0.1160    0.0166    0.0000  180.0000    0.0045    72    73    74     6
    74   -0.0661   -0.0590    0.1160    0.0166    0.0000  180.0000    0.0045    73    74    75     6
    75   -0.0827   -0.0590    0.1160    0.0166    0.0000  180.0000    0.0045    74    75     0     6
    76   -0.0163   -0.1770    0.1160    0.0166    0.0000  180.0000    0.0045     0    76    77     7
    77   -0.0329   -0.1770    0.1160    0.0166    0.0000  180.0000    0.0045    76    77    78     7
    78   -0.0495   -0.1770    0.1160    0.0166    0.0000  180.0000    0.0045    77    78    79     7
    79   -0.0661   -0.1770    0.1160    0.0166    0.0000  180.0000    0.0045    78    79    80     7
    80   -0.0827   -0.1770    0.1160    0.0166    0.0000  180.0000    0.0045    79    80     0     7


                                    --------- SURFACE PATCH DATA ---------
                                             COORDINATES IN METERS

 PATCH      COORD. OF PATCH CENTER           UNIT NORMAL VECTOR       PATCH           COMPONENTS OF UNIT TANGENT VECTORS
  NO:       X          Y          Z          X        Y        Z       AREA         X1       Y1       Z1        X2       Y2      Z2
    1    0.01875    0.01562    0.00000    0.0000   0.0000   1.0000    0.00117    1.0000   0.0000   0.0000    0.0000   1.0000   0.0000
    2    0.05625    0.01562    0.00000    0.0000   0.0000   1.0000    0.00117    1.0000   0.0000   0.0000    0.0000   1.0000   0.0000
    3    0.09375    0.01562    0.00000    0.0000   0.0000   1.0000    0.00117    1.0000   0.0000   0.0000    0.0000   1.0000   0.0000
    4    0.13125    0.01562    0.00000    0.0000   0.0000   1.0000    0.00117    1.0000   0.0000   0.0000    0.0000   1.0000   0.0000
    5    0.01875    0.04688    0.00000    0.0000   0.0000   1.0000    0.00117    1.0000   0.0000   0.0000    0.0000   1.0000   0.0000
    6    0.05625    0.04688    0.00000    0.0000   0.0000   1.0000    0.00117    1.0000   0.0000   0.0000    0.0000   1.0000   0.0000
    7    0.09375    0.04688    0.00000    0.0000   0.0000   1.0000    0.00117    1.0000   0.0000   0.0000    0.0000   1.0000   0.0000
    8    0.13125    0.04688    0.00000    0.0000   0.0000   1.0000    0.00117    1.0000   0.0000   0.0000    0.0000   1.0000   0.0000
    9    0.01875    0.07812    0.00000    0.0000   0.0000   1.0000    0.00117    1.0000   0.0000   0.0000    0.0000   1.0000   0.0000
   10    0.05625    0.07812    0.00000    0.0000   0.0000   1.0000    0.00117    1.0000   0.0000   0.0000    0.0000   1.0000   0.0000
   11    0.09375    0.07812    0.00000    0.0000   0.0000   1.0000    0.00117    1.0000   0.0000   0.0000    0.0000   1.0000   0.0000
   12    0.13125    0.07812    0.00000    0.0000   0.0000   1.0000    0.00117    1.0000   0.0000   0.0000    0.0000   1.0000   0.0000
   13    0.01875    0.10938    0.00000    0.0000   0.0000   1.0000    0.00117    1.0000   0.0000   0.0000    0.0000   1.0000   0.0000
   14    0.05625    0.10938    0.00000    0.0000   0.0000   1.0000    0.00117    1.0000   0.0000   0.0000    0.0000   1.0000   0.0000
   15    0.09375    0.10938    0.00000    0.0000   0.0000   1.0000    0.00117    1.0000   0.0000   0.0000    0.0000   1.0000   0.0000
   16    0.13125    0.10938    0.00000    0.0000   0.0000   1.0000    0.00117    1.0000   0.0000   0.0000    0.0000   1.0000   0.0000
   17    0.01875    0.14062    0.00000    0.0000   0.0000   1.0000    0.00117    1.0000   0.0000   0.0000    0.0000   1.0000   0.0000
   18    0.05625    0.14062    0.00000    0.0000   0.0000   1.0000    0.00117    1.0000   0.0000   0.0000    0.0000   1.0000   0.0000
   19    0.09375    0.14062    0.00000    0.0000   0.0000   1.0000    0.00117    1.0000   0.0000   0.0000    0.0000   1.0000   0.0000
   20    0.13125    0.14062    0.00000    0.0000   0.0000   1.0000    0.00117    1.0000   0.0000   0.0000    0.0000   1.0000   0.0000
   21    0.01875    0.17188    0.00000    0.0000   0.0000   1.0000    0.00117    1.0000   0.0000   0.0000    0.0000   1.0000   0.0000
   22    0.05625    0.17188    0.00000    0.0000   0.0000   1.0000    0.00117    1.0000   0.0000   0.0000    0.0000   1.0000   0.0000
   23    0.09375    0.17188    0.00000    0.0000   0.0000   1.0000    0.00117    1.0000   0.0000   0.0000    0.0000   1.0000   0.0000
   24    0.13125    0.17188    0.00000    0.0000   0.0000   1.0000    0.00117    1.0000   0.0000   0.0000    0.0000   1.0000   0.0000
   25    0.01875    0.20312    0.00000    0.0000   0.0000   1.0000    0.00117    1.0000   0.0000   0.0000    0.0000   1.0000   0.0000
   26    0.05625    0.20312    0.00000    0.0000   0.0000   1.0000    0.00117    1.0000   0.0000   0.0000    0.0000   1.0000   0.0000
   27    0.09375    0.20312    0.00000    0.0000   0.0000   1.0000    0.00117    1.0000   0.0000   0.0000    0.0000   1.0000   0.0000
   28    0.13125    0.20312    0.00000    0.0000   0.0000   1.0000    0.00117    1.0000   0.0000   0.0000    0.0000   1.0000   0.0000
   29    0.01875    0.23438    0.00000    0.0000   0.0000   1.0000    0.00117    1.0000   0.0000   0.0000    0.0000   1.0000   0.0000
   30    0.05625    0.23438    0.00000    0.0000   0.0000   1.0000    0.00117    1.0000   0.0000   0.0000    0.0000   1.0000   0.0000
   31    0.09375    0.23438    0.00000    0.0000   0.0000   1.0000    0.00117    1.0000   0.0000   0.0000    0.0000   1.0000   0.0000
   32    0.13125    0.23438    0.00000    0.0000   0.0000   1.0000    0.00117    1.0000   0.0000   0.0000    0.0000   1.0000   0.0000
   33    0.01875   -0.01562    0.00000   -0.0000  -0.0000   1.0000    0.00117    1.0000  -0.0000   0.0000    0.0000  -1.0000   0.0000
   34    0.05625   -0.01562    0.00000   -0.0000  -0.0000   1.0000    0.00117    1.0000  -0.0000   0.0000    0.0000  -1.0000   0.0000
   35    0.09375   -0.01562    0.00000   -0.0000  -0.0000   1.0000    0.00117    1.0000  -0.0000   0.0000    0.0000  -1.0000   0.0000
   36    0.13125   -0.01562    0.00000   -0.0000  -0.0000   1.0000    0.00117    1.0000  -0.0000   0.0000    0.0000  -1.0000   0.0000
   37    0.01875   -0.04688    0.00000   -0.0000  -0.0000   1.0000    0.00117    1.0000  -0.0000   0.0000    0.0000  -1.0000   0.0000
   38    0.05625   -0.04688    0.00000   -0.0000  -0.0000   1.0000    0.00117    1.0000  -0.0000   0.0000    0.0000  -1.0000   0.0000
   39    0.09375   -0.04688    0.00000   -0.0000  -0.0000   1.0000    0.00117    1.0000  -0.0000   0.0000    0.0000  -1.0000   0.0000
   40    0.13125   -0.04688    0.00000   -0.0000  -0.0000   1.0000    0.00117    1.0000  -0.0000   0.0000    0.0000  -1.0000   0.0000
   41    0.01875   -0.07812    0.00000   -0.0000  -0.0000   1.0000    0.00117    1.0000  -0.0000   0.0000    0.0000  -1.0000   0.0000
   42    0.05625   -0.07812    0.00000   -0.0000  -0.0000   1.0000    0.00117    1.0000  -0.0000   0.0000    0.0000  -1.0000   0.0000
   43    0.09375   -0.07812    0.00000   -0.0000  -0.0000   1.0000    0.00117    1.0000  -0.0000   0.0000    0.0000  -1.0000   0.0000
   44    0.13125   -0.07812    0.00000   -0.0000  -0.0000   1.0000    0.00117    1.0000  -0.0000   0.0000    0.0000  -1.0000   0.0000
   45    0.01875   -0.10938    0.00000   -0.0000  -0.0000   1.0000    0.00117    1.0000  -0.0000   0.0000    0.0000  -1.0000   0.0000
   46    0.05625   -0.10938    0.00000   -0.0000  -0.0000   1.0000    0.00117    1.0000  -0.0000   0.0000    0.0000  -1.0000   0.0000
   47    0.09375   -0.10938    0.00000   -0.0000  -0.0000   1.0000    0.00117    1.0000  -0.0000   0.0000    0.0000  -1.0000   0.0000
   48    0.13125   -0.10938    0.00000   -0.0000  -0.0000   1.0000    0.00117    1.0000  -0.0000   0.0000    0.0000  -1.0000   0.0000
   49    0.01875   -0.14062    0.00000   -0.0000  -0.0000   1.0000    0.00117    1.0000  -0.0000   0.0000    0.0000  -1.0000   0.0000
   50    0.05625   -0.14062    0.00000   -0.0000  -0.0000   1.0000    0.00117    1.0000  -0.0000   0.0000    0.0000  -1.0000   0.0000
   51    0.09375   -0.14062    0.00000   -0.0000  -0.0000   1.0000    0.00117    1.0000  -0.0000   0.0000    0.0000  -1.0000   0.0000
   52    0.13125   -0.14062    0.00000   -0.0000  -0.0000   1.0000    0.00117    1.0000  -0.0000   0.0000    0.0000  -1.0000   0.0000
   53    0.01875   -0.17188    0.00000   -0.0000  -0.0000   1.0000    0.00117    1.0000  -0.0000   0.0000    0.0000  -1.0000   0.0000
   54    0.05625   -0.17188    0.00000   -0.0000  -0.0000   1.0000    0.00117    1.0000  -0.0000   0.0000    0.0000  -1.0000   0.0000
   55    0.09375   -0.17188    0.00000   -0.0000  -0.0000   1.0000    0.00117    1.0000  -0.0000   0.0000    0.0000  -1.0000   0.0000
   56    0.13125   -0.17188    0.00000   -0.0000  -0.0000   1.0000    0.00117    1.0000  -0.0000   0.0000    0.0000  -1.0000   0.0000
   57    0.01875   -0.20312    0.00000   -0.0000  -0.0000   1.0000    0.00117    1.0000  -0.0000   0.0000    0.0000  -1.0000   0.0000
   58    0.05625   -0.20312    0.00000   -0.0000  -0.0000   1.0000    0.00117    1.0000  -0.0000   0.0000    0.0000  -1.0000   0.0000
   59    0.09375   -0.20312    0.00000   -0.0000  -0.0000   1.0000    0.00117    1.0000  -0.0000   0.0000    0.0000  -1.0000   0.0000
   60    0.13125   -0.20312    0.00000   -0.0000  -0.0000   1.0000    0.00117    1.0000  -0.0000   0.0000    0.0000  -1.0000   0.0000
   61    0.01875   -0.23438    0.00000   -0.0000  -0.0000   1.0000    0.00117    1.0000  -0.0000   0.0000    0.0000  -1.0000   0.0000
   62    0.05625   -0.23438    0.00000   -0.0000  -0.0000   1.0000    0.00117    1.0000  -0.0000   0.0000    0.0000  -1.0000   0.0000
   63    0.09375   -0.23438    0.00000   -0.0000  -0.0000   1.0000    0.00117    1.0000  -0.0000   0.0000    0.0000  -1.0000   0.0000
   64    0.13125   -0.23438    0.00000   -0.0000  -0.0000   1.0000    0.00117    1.0000  -0.0000   0.0000    0.0000  -1.0000   0.0000
   65   -0.01875    0.01562    0.00000   -0.0000  -0.0000   1.0000    0.00117   -1.0000   0.0000   0.0000   -0.0000   1.0000   0.0000
   66   -0.05625    0.01562    0.00000   -0.0000  -0.0000   1.0000    0.00117   -1.0000   0.0000   0.0000   -0.0000   1.0000   0.0000
   67   -0.09375    0.01562    0.00000   -0.0000  -0.0000   1.0000    0.00117   -1.0000   0.0000   0.0000   -0.0000   1.0000   0.0000
   68   -0.13125    0.01562    0.00000   -0.0000  -0.0000   1.0000    0.00117   -1.0000   0.0000   0.0000   -0.0000   1.0000   0.0000
   69   -0.01875    0.04688    0.00000   -0.0000  -0.0000   1.0000    0.00117   -1.0000   0.0000   0.0000   -0.0000   1.0000   0.0000
   70   -0.05625    0.04688    0.00000   -0.0000  -0.0000   1.0000    0.00117   -1.0000   0.0000   0.0000   -0.0000   1.0000   0.0000
   71   -0.09375    0.04688    0.00000   -0.0000  -0.0000   1.0000    0.00117   -1.0000   0.0000   0.0000   -0.0000   1.0000   0.0000
   72   -0.13125    0.04688    0.00000   -0.0000  -0.0000   1.0000    0.00117   -1.0000   0.0000   0.0000   -0.0000   1.0000   0.0000
   73   -0.01875    0.07812    0.00000   -0.0000  -0.0000   1.0000    0.00117   -1.0000   0.0000   0.0000   -0.0000   1.0000   0.0000
   74   -0.05625    0.07812    0.00000   -0.0000  -0.0000   1.0000    0.00117   -1.0000   0.0000   0.0000   -0.0000   1.0000   0.0000
   75   -0.09375    0.07812    0.00000   -0.0000  -0.0000   1.0000    0.00117   -1.0000   0.0000   0.0000   -0.0000   1.0000   0.0000
   76   -0.13125    0.07812    0.00000   -0.0000  -0.0000   1.0000    0.00117   -1.0000   0.0000   0.0000   -0.0000   1.0000   0.0000
   77   -0.01875    0.10938    0.00000   -0.0000  -0.0000   1.0000    0.00117   -1.0000   0.0000   0.0000   -0.0000   1.0000   0.0000
   78   -0.05625    0.10938    0.00000   -0.0000  -0.0000   1.0000    0.00117   -1.0000   0.0000   0.0000   -0.0000   1.0000   0.0000
   79   -0.09375    0.10938    0.00000   -0.0000  -0.0000   1.0000    0.00117   -1.0000   0.0000   0.0000   -0.0000   1.0000   0.0000
   80   -0.13125    0.10938    0.00000   -0.0000  -0.0000   1.0000    0.00117   -1.0000   0.0000   0.0000   -0.0000   1.0000   0.0000
   81   -0.01875    0.14062    0.00000   -0.0000  -0.0000   1.0000    0.00117   -1.0000   0.0000   0.0000   -0.0000   1.0000   0.0000
   82   -0.05625    0.14062    0.00000   -0.0000  -0.0000   1.0000    0.00117   -1.0000   0.0000   0.0000   -0.0000   1.0000   0.0000
   83   -0.09375    0.14062    0.00000   -0.0000  -0.0000   1.0000    0.00117   -1.0000   0.0000   0.0000   -0.0000   1.0000   0.0000
   84   -0.13125    0.14062    0.00000   -0.0000  -0.0000   1.0000    0.00117   -1.0000   0.0000   0.0000   -0.0000   1.0000   0.0000
   85   -0.01875    0.17188    0.00000   -0.0000  -0.0000   1.0000    0.00117   -1.0000   0.0000   0.0000   -0.0000   1.0000   0.0000
   86   -0.05625    0.17188    0.00000   -0.0000  -0.0000   1.0000    0.00117   -1.0000   0.0000   0.0000   -0.0000   1.0000   0.0000
   87   -0.09375    0.17188    0.00000   -0.0000  -0.0000   1.0000    0.00117   -1.0000   0.0000   0.0000   -0.0000   1.0000   0.0000
   88   -0.13125    0.17188    0.00000   -0.0000  -0.0000   1.0000    0.00117   -1.0000   0.0000   0.0000   -0.0000   1.0000   0.0000
   89   -0.01875    0.20312    0.00000   -0.0000  -0.0000   1.0000    0.00117   -1.0000   0.0000   0.0000   -0.0000   1.0000   0.0000
   90   -0.05625    0.20312    0.00000   -0.0000  -0.0000   1.0000    0.00117   -1.0000   0.0000   0.0000   -0.0000   1.0000   0.0000
   91   -0.09375    0.20312    0.00000   -0.0000  -0.0000   1.0000    0.00117   -1.0000   0.0000   0.0000   -0.0000   1.0000   0.0000
   92   -0.13125    0.20312    0.00000   -0.0000  -0.0000   1.0000    0.00117   -1.0000   0.0000   0.0000   -0.0000   1.0000   0.0000
   93   -0.01875    0.23438    0.00000   -0.0000  -0.0000   1.0000    0.00117   -1.0000   0.0000   0.0000   -0.0000   1.0000   0.0000
   94   -0.05625    0.23438    0.00000   -0.0000  -0.0000   1.0000    0.00117   -1.0000   0.0000   0.0000   -0.0000   1.0000   0.0000
   95   -0.09375    0.23438    0.00000   -0.0000  -0.0000   1.0000    0.00117   -1.0000   0.0000   0.0000   -0.0000   1.0000   0.0000
   96   -0.13125    0.23438    0.00000   -0.0000  -0.0000   1.0000    0.00117   -1.0000   0.0000   0.0000   -0.0000   1.0000   0.0000
   97   -0.01875   -0.01562    0.00000    0.0000   0.0000   1.0000    0.00117   -1.0000  -0.0000   0.0000   -0.0000  -1.0000   0.0000
   98   -0.05625   -0.01562    0.00000    0.0000   0.0000   1.0000    0.00117   -1.0000  -0.0000   0.0000   -0.0000  -1.0000   0.0000
   99   -0.09375   -0.01562    0.00000    0.0000   0.0000   1.0000    0.00117   -1.0000  -0.0000   0.0000   -0.0000  -1.0000   0.0000
  100   -0.13125   -0.01562    0.00000    0.0000   0.0000   1.0000    0.00117   -1.0000  -0.0000   0.0000   -0.0000  -1.0000   0.0000
  101   -0.01875   -0.04688    0.00000    0.0000   0.0000   1.0000    0.00117   -1.0000  -0.0000   0.0000   -0.0000  -1.0000   0.0000
  102   -0.05625   -0.04688    0.00000    0.0000   0.0000   1.0000    0.00117   -1.0000  -0.0000   0.0000   -0.0000  -1.0000   0.0000
  103   -0.09375   -0.04688    0.00000    0.0000   0.0000   1.0000    0.00117   -1.0000  -0.0000   0.0000   -0.0000  -1.0000   0.0000
  104   -0.13125   -0.04688    0.00000    0.0000   0.0000   1.0000    0.00117   -1.0000  -0.0000   0.0000   -0.0000  -1.0000   0.0000
  105   -0.01875   -0.07812    0.00000    0.0000   0.0000   1.0000    0.00117   -1.0000  -0.0000   0.0000   -0.0000  -1.0000   0.0000
  106   -0.05625   -0.07812    0.00000    0.0000   0.0000   1.0000    0.00117   -1.0000  -0.0000   0.0000   -0.0000  -1.0000   0.0000
  107   -0.09375   -0.07812    0.00000    0.0000   0.0000   1.0000    0.00117   -1.0000  -0.0000   0.0000   -0.0000  -1.0000   0.0000
  108   -0.13125   -0.07812    0.00000    0.0000   0.0000   1.0000    0.00117   -1.0000  -0.0000   0.0000   -0.0000  -1.0000   0.0000
  109   -0.01875   -0.10938    0.00000    0.0000   0.0000   1.0000    0.00117   -1.0000  -0.0000   0.0000   -0.0000  -1.0000   0.0000
  110   -0.05625   -0.10938    0.00000    0.0000   0.0000   1.0000    0.00117   -1.0000  -0.0000   0.0000   -0.0000  -1.0000   0.0000
  111   -0.09375   -0.10938    0.00000    0.0000   0.0000   1.0000    0.00117   -1.0000  -0.0000   0.0000   -0.0000  -1.0000   0.0000
  112   -0.13125   -0.10938    0.00000    0.0000   0.0000   1.0000    0.00117   -1.0000  -0.0000   0.0000   -0.0000  -1.0000   0.0000
  113   -0.01875   -0.14062    0.00000    0.0000   0.0000   1.0000    0.00117   -1.0000  -0.0000   0.0000   -0.0000  -1.0000   0.0000
  114   -0.05625   -0.14062    0.00000    0.0000   0.0000   1.0000    0.00117   -1.0000  -0.0000   0.0000   -0.0000  -1.0000   0.0000
  115   -0.09375   -0.14062    0.00000    0.0000   0.0000   1.0000    0.00117   -1.0000  -0.0000   0.0000   -0.0000  -1.0000   0.0000
  116   -0.13125   -0.14062    0.00000    0.0000   0.0000   1.0000    0.00117   -1.0000  -0.0000   0.0000   -0.0000  -1.0000   0.0000
  117   -0.01875   -0.17188    0.00000    0.0000   0.0000   1.0000    0.00117   -1.0000  -0.0000   0.0000   -0.0000  -1.0000   0.0000
  118   -0.05625   -0.17188    0.00000    0.0000   0.0000   1.0000    0.00117   -1.0000  -0.0000   0.0000   -0.0000  -1.0000   0.0000
  119   -0.09375   -0.17188    0.00000    0.0000   0.0000   1.0000    0.00117   -1.0000  -0.0000   0.0000   -0.0000  -1.0000   0.0000
  120   -0.13125   -0.17188    0.00000    0.0000   0.0000   1.0000    0.00117   -1.0000  -0.0000   0.0000   -0.0000  -1.0000   0.0000
  121   -0.01875   -0.20312    0.00000    0.0000   0.0000   1.0000    0.00117   -1.0000  -0.0000   0.0000   -0.0000  -1.0000   0.0000
  122   -0.05625   -0.20312    0.00000    0.0000   0.0000   1.0000    0.00117   -1.0000  -0.0000   0.0000   -0.0000  -1.0000   0.0000
  123   -0.09375   -0.20312    0.00000    0.0000   0.0000   1.0000    0.00117   -1.0000  -0.0000   0.0000   -0.0000  -1.0000   0.0000
  124   -0.13125   -0.20312    0.00000    0.0000   0.0000   1.0000    0.00117   -1.0000  -0.0000   0.0000   -0.0000  -1.0000   0.0000
  125   -0.01875   -0.23438    0.00000    0.0000   0.0000   1.0000    0.00117   -1.0000  -0.0000   0.0000   -0.0000  -1.0000   0.0000
  126   -0.05625   -0.23438    0.00000    0.0000   0.0000   1.0000    0.00117   -1.0000  -0.0000   0.0000   -0.0000  -1.0000   0.0000
  127   -0.09375   -0.23438    0.00000    0.0000   0.0000   1.0000    0.00117   -1.0000  -0.0000   0.0000   -0.0000  -1.0000   0.0000
  128   -0.13125   -0.23438    0.00000    0.0000   0.0000   1.0000    0.00117   -1.0000  -0.0000   0.0000   -0.0000  -1.0000   0.0000



*****  DATA CARD N0.   1 FR   0     1     0     0  1.29600E+03  0.00000E+00  0.00000E+00  0.00000E+00  0.00000E+00  0.00000E+00
*****  DATA CARD N0.   2 TL   0     1     0     6 -3.00000E+02  1.10000E-01  0.00000E+00  0.00000E+00  0.00000E+00  0.00000E+00
*****  DATA CARD N0.   3 TL   0    41     0    46 -3.00000E+02  1.10000E-01  0.00000E+00  0.00000E+00  0.00000E+00  0.00000E+00
*****  DATA CARD N0.   4 TL   0    21     0    26 -3.00000E+02  1.10000E-01  0.00000E+00  0.00000E+00  0.00000E+00  0.00000E+00
*****  DATA CARD N0.   5 TL   0    61     0    66 -3.00000E+02  1.10000E-01  0.00000E+00  0.00000E+00  0.00000E+00  0.00000E+00
*****  DATA CARD N0.   6 EX   0     0     1     0  1.00000E+00  0.00000E+00  0.00000E+00  0.00000E+00  0.00000E+00  0.00000E+00
*****  DATA CARD N0.   7 EX   0     0    41     0 -1.00000E+00  0.00000E+00  0.00000E+00  0.00000E+00  0.00000E+00  0.00000E+00
*****  DATA CARD N0.   8 EX   0     0    21     0  1.00000E+00  0.00000E+00  0.00000E+00  0.00000E+00  0.00000E+00  0.00000E+00
*****  DATA CARD N0.   9 EX   0     0    61     0 -1.00000E+00  0.00000E+00  0.00000E+00  0.00000E+00  0.00000E+00  0.00000E+00
*****  DATA CARD N0.  10 LD   5     0     0     0  3.72000E+07  0.00000E+00  0.00000E+00  0.00000E+00  0.00000E+00  0.00000E+00
*****  DATA CARD N0.  11 PT  -1     0     0     0  0.00000E+00  0.00000E+00  0.00000E+00  0.00000E+00  0.00000E+00  0.00000E+00
*****  DATA CARD N0.  12 'P   3     1     0     3  0.00000E+00  0.00000E+00  0.00000E+00  0.00000E+00  0.00000E+00  0.00000E+00                               NEC++ Runtime Error: 
                               FAULTY DATA CARD LABEL AFTER GEOMETRY SECTION.
