


                                __________________________________________
                               |                                          |
                               | NUMERICAL ELECTROMAGNETICS CODE (nec2++) |
                               | Translated to 'C++' in Double Precision  |
                               |        Version 1.1.0 [2005-01-20]        |
                               |__________________________________________|



                               ---------------- COMMENTS ----------------
                                *** Richtanzenne K 5332187 ***
                                *** 87.5 - 108 MHz ***
                                *** GW 1 = vertikal   GW 2 , 3 = horizontal ***
                               



                                -------- STRUCTURE SPECIFICATION --------
                                COORDINATES MUST BE INPUT IN
                                METERS OR BE SCALED TO METERS
                                BEFORE STRUCTURE INPUT IS ENDED
  WIRE                                                                                 SEG FIRST  LAST  TAG
   No:        X1         Y1         Z1         X2         Y2         Z2       RADIUS   No:   SEG   SEG  No:

     1      0.7850    -0.7000     0.7900     0.7850     0.7000     0.7900     0.0200    11     1    11    1
     2      0.0000    -0.7850     0.7900     0.6900    -0.7850     0.6300     0.0200     5    12    16    2
     3      0.0000     0.7850     0.7900     0.6900     0.7850     0.6300     0.0200     5    17    21    3
     1R    0.00000    -1.10000     0.00000     1.10000    -1.10000     0.00000     SURFACE - 3 BY 6 PATCHES
          1.10000     1.10000     0.00000     0.00000     1.10000     0.00000
  STRUCTURE REFLECTED ALONG THE AXES X * * - TAGS INCREMENTED BY 1


     TOTAL SEGMENTS USED: 42   SEGMENTS IN A SYMMETRIC CELL: 21   SYMMETRY FLAG: 1
       TOTAL PATCHES USED: 36   PATCHES IN A SYMMETRIC CELL: 18
  STRUCTURE HAS 1 PLANES OF SYMMETRY



                               ---------- SEGMENTATION DATA ----------
                                        COORDINATES IN METERS
                            I+ AND I- INDICATE THE SEGMENTS BEFORE AND AFTER I

   SEG    COORDINATES OF SEGM CENTER     SEGM    ORIENTATION ANGLES    WIRE    CONNECTION DATA   TAG
   No:       X         Y         Z      LENGTH     ALPHA      BETA    RADIUS    I-     I    I+   NO:
     1    0.7850   -0.6364    0.7900    0.1273    0.0000   90.0000    0.0200     0     1     2     1
     2    0.7850   -0.5091    0.7900    0.1273    0.0000   90.0000    0.0200     1     2     3     1
     3    0.7850   -0.3818    0.7900    0.1273    0.0000   90.0000    0.0200     2     3     4     1
     4    0.7850   -0.2545    0.7900    0.1273    0.0000   90.0000    0.0200     3     4     5     1
     5    0.7850   -0.1273    0.7900    0.1273    0.0000   90.0000    0.0200     4     5     6     1
     6    0.7850   -0.0000    0.7900    0.1273    0.0000   90.0000    0.0200     5     6     7     1
     7    0.7850    0.1273    0.7900    0.1273    0.0000   90.0000    0.0200     6     7     8     1
     8    0.7850    0.2545    0.7900    0.1273    0.0000   90.0000    0.0200     7     8     9     1
     9    0.7850    0.3818    0.7900    0.1273    0.0000   90.0000    0.0200     8     9    10     1
    10    0.7850    0.5091    0.7900    0.1273    0.0000   90.0000    0.0200     9    10    11     1
    11    0.7850    0.6364    0.7900    0.1273    0.0000   90.0000    0.0200    10    11     0     1
    12    0.0690   -0.7850    0.7740    0.1417  -13.0552    0.0000    0.0200   -33    12    13     2
    13    0.2070   -0.7850    0.7420    0.1417  -13.0552    0.0000    0.0200    12    13    14     2
    14    0.3450   -0.7850    0.7100    0.1417  -13.0552    0.0000    0.0200    13    14    15     2
    15    0.4830   -0.7850    0.6780    0.1417  -13.0552    0.0000    0.0200    14    15    16     2
    16    0.6210   -0.7850    0.6460    0.1417  -13.0552    0.0000    0.0200    15    16     0     2
    17    0.0690    0.7850    0.7740    0.1417  -13.0552    0.0000    0.0200   -38    17    18     3
    18    0.2070    0.7850    0.7420    0.1417  -13.0552    0.0000    0.0200    17    18    19     3
    19    0.3450    0.7850    0.7100    0.1417  -13.0552    0.0000    0.0200    18    19    20     3
    20    0.4830    0.7850    0.6780    0.1417  -13.0552    0.0000    0.0200    19    20    21     3
    21    0.6210    0.7850    0.6460    0.1417  -13.0552    0.0000    0.0200    20    21     0     3
    22   -0.7850   -0.6364    0.7900    0.1273    0.0000   90.0000    0.0200     0    22    23     2
    23   -0.7850   -0.5091    0.7900    0.1273    0.0000   90.0000    0.0200    22    23    24     2
    24   -0.7850   -0.3818    0.7900    0.1273    0.0000   90.0000    0.0200    23    24    25     2
    25   -0.7850   -0.2545    0.7900    0.1273    0.0000   90.0000    0.0200    24    25    26     2
    26   -0.7850   -0.1273    0.7900    0.1273    0.0000   90.0000    0.0200    25    26    27     2
    27   -0.7850   -0.0000    0.7900    0.1273    0.0000   90.0000    0.0200    26    27    28     2
    28   -0.7850    0.1273    0.7900    0.1273    0.0000   90.0000    0.0200    27    28    29     2
    29   -0.7850    0.2545    0.7900    0.1273    0.0000   90.0000    0.0200    28    29    30     2
    30   -0.7850    0.3818    0.7900    0.1273    0.0000   90.0000    0.0200    29    30    31     2
    31   -0.7850    0.5091    0.7900    0.1273    0.0000   90.0000    0.0200    30    31    32     2
    32   -0.7850    0.6364    0.7900    0.1273    0.0000   90.0000    0.0200    31    32     0     2
    33   -0.0690   -0.7850    0.7740    0.1417  -13.0552  180.0000    0.0200   -12    33    34     3
    34   -0.2070   -0.7850    0.7420    0.1417  -13.0552  180.0000    0.0200    33    34    35     3
    35   -0.3450   -0.7850    0.7100    0.1417  -13.0552  180.0000    0.0200    34    35    36     3
    36   -0.4830   -0.7850    0.6780    0.1417  -13.0552  180.0000    0.0200    35    36    37     3
    37   -0.6210   -0.7850    0.6460    0.1417  -13.0552  180.0000    0.0200    36    37     0     3
    38   -0.0690    0.7850    0.7740    0.1417  -13.0552  180.0000    0.0200   -17    38    39     4
    39   -0.2070    0.7850    0.7420    0.1417  -13.0552  180.0000    0.0200    38    39    40     4
    40   -0.3450    0.7850    0.7100    0.1417  -13.0552  180.0000    0.0200    39    40    41     4
    41   -0.4830    0.7850    0.6780    0.1417  -13.0552  180.0000    0.0200    40    41    42     4
    42   -0.6210    0.7850    0.6460    0.1417  -13.0552  180.0000    0.0200    41    42     0     4


                                    --------- SURFACE PATCH DATA ---------
                                             COORDINATES IN METERS

 PATCH      COORD. OF PATCH CENTER           UNIT NORMAL VECTOR       PATCH           COMPONENTS OF UNIT TANGENT VECTORS
  NO:       X          Y          Z          X        Y        Z       AREA         X1       Y1       Z1        X2       Y2      Z2
    1    0.18333   -0.91667    0.00000    0.0000   0.0000   1.0000    0.13444    1.0000   0.0000   0.0000    0.0000   1.0000   0.0000
    2    0.55000   -0.91667    0.00000    0.0000   0.0000   1.0000    0.13444    1.0000   0.0000   0.0000    0.0000   1.0000   0.0000
    3    0.91667   -0.91667    0.00000    0.0000   0.0000   1.0000    0.13444    1.0000   0.0000   0.0000    0.0000   1.0000   0.0000
    4    0.18333   -0.55000    0.00000    0.0000   0.0000   1.0000    0.13444    1.0000   0.0000   0.0000    0.0000   1.0000   0.0000
    5    0.55000   -0.55000    0.00000    0.0000   0.0000   1.0000    0.13444    1.0000   0.0000   0.0000    0.0000   1.0000   0.0000
    6    0.91667   -0.55000    0.00000    0.0000   0.0000   1.0000    0.13444    1.0000   0.0000   0.0000    0.0000   1.0000   0.0000
    7    0.18333   -0.18333    0.00000    0.0000   0.0000   1.0000    0.13444    1.0000   0.0000   0.0000    0.0000   1.0000   0.0000
    8    0.55000   -0.18333    0.00000    0.0000   0.0000   1.0000    0.13444    1.0000   0.0000   0.0000    0.0000   1.0000   0.0000
    9    0.91667   -0.18333    0.00000    0.0000   0.0000   1.0000    0.13444    1.0000   0.0000   0.0000    0.0000   1.0000   0.0000
   10    0.18333    0.18333    0.00000    0.0000   0.0000   1.0000    0.13444    1.0000   0.0000   0.0000    0.0000   1.0000   0.0000
   11    0.55000    0.18333    0.00000    0.0000   0.0000   1.0000    0.13444    1.0000   0.0000   0.0000    0.0000   1.0000   0.0000
   12    0.91667    0.18333    0.00000    0.0000   0.0000   1.0000    0.13444    1.0000   0.0000   0.0000    0.0000   1.0000   0.0000
   13    0.18333    0.55000    0.00000    0.0000   0.0000   1.0000    0.13444    1.0000   0.0000   0.0000    0.0000   1.0000   0.0000
   14    0.55000    0.55000    0.00000    0.0000   0.0000   1.0000    0.13444    1.0000   0.0000   0.0000    0.0000   1.0000   0.0000
   15    0.91667    0.55000    0.00000    0.0000   0.0000   1.0000    0.13444    1.0000   0.0000   0.0000    0.0000   1.0000   0.0000
   16    0.18333    0.91667    0.00000    0.0000   0.0000   1.0000    0.13444    1.0000   0.0000   0.0000    0.0000   1.0000   0.0000
   17    0.55000    0.91667    0.00000    0.0000   0.0000   1.0000    0.13444    1.0000   0.0000   0.0000    0.0000   1.0000   0.0000
   18    0.91667    0.91667    0.00000    0.0000   0.0000   1.0000    0.13444    1.0000   0.0000   0.0000    0.0000   1.0000   0.0000
   19   -0.18333   -0.91667    0.00000   -0.0000  -0.0000   1.0000    0.13444   -1.0000   0.0000   0.0000   -0.0000   1.0000   0.0000
   20   -0.55000   -0.91667    0.00000   -0.0000  -0.0000   1.0000    0.13444   -1.0000   0.0000   0.0000   -0.0000   1.0000   0.0000
   21   -0.91667   -0.91667    0.00000   -0.0000  -0.0000   1.0000    0.13444   -1.0000   0.0000   0.0000   -0.0000   1.0000   0.0000
   22   -0.18333   -0.55000    0.00000   -0.0000  -0.0000   1.0000    0.13444   -1.0000   0.0000   0.0000   -0.0000   1.0000   0.0000
   23   -0.55000   -0.55000    0.00000   -0.0000  -0.0000   1.0000    0.13444   -1.0000   0.0000   0.0000   -0.0000   1.0000   0.0000
   24   -0.91667   -0.55000    0.00000   -0.0000  -0.0000   1.0000    0.13444   -1.0000   0.0000   0.0000   -0.0000   1.0000   0.0000
   25   -0.18333   -0.18333    0.00000   -0.0000  -0.0000   1.0000    0.13444   -1.0000   0.0000   0.0000   -0.0000   1.0000   0.0000
   26   -0.55000   -0.18333    0.00000   -0.0000  -0.0000   1.0000    0.13444   -1.0000   0.0000   0.0000   -0.0000   1.0000   0.0000
   27   -0.91667   -0.18333    0.00000   -0.0000  -0.0000   1.0000    0.13444   -1.0000   0.0000   0.0000   -0.0000   1.0000   0.0000
   28   -0.18333    0.18333    0.00000   -0.0000  -0.0000   1.0000    0.13444   -1.0000   0.0000   0.0000   -0.0000   1.0000   0.0000
   29   -0.55000    0.18333    0.00000   -0.0000  -0.0000   1.0000    0.13444   -1.0000   0.0000   0.0000   -0.0000   1.0000   0.0000
   30   -0.91667    0.18333    0.00000   -0.0000  -0.0000   1.0000    0.13444   -1.0000   0.0000   0.0000   -0.0000   1.0000   0.0000
   31   -0.18333    0.55000    0.00000   -0.0000  -0.0000   1.0000    0.13444   -1.0000   0.0000   0.0000   -0.0000   1.0000   0.0000
   32   -0.55000    0.55000    0.00000   -0.0000  -0.0000   1.0000    0.13444   -1.0000   0.0000   0.0000   -0.0000   1.0000   0.0000
   33   -0.91667    0.55000    0.00000   -0.0000  -0.0000   1.0000    0.13444   -1.0000   0.0000   0.0000   -0.0000   1.0000   0.0000
   34   -0.18333    0.91667    0.00000   -0.0000  -0.0000   1.0000    0.13444   -1.0000   0.0000   0.0000   -0.0000   1.0000   0.0000
   35   -0.55000    0.91667    0.00000   -0.0000  -0.0000   1.0000    0.13444   -1.0000   0.0000   0.0000   -0.0000   1.0000   0.0000
   36   -0.91667    0.91667    0.00000   -0.0000  -0.0000   1.0000    0.13444   -1.0000   0.0000   0.0000   -0.0000   1.0000   0.0000



*****  DATA CARD N0.   1 FR   0     1     0     0  1.00000E+02  0.00000E+00  0.00000E+00  0.00000E+00  0.00000E+00  0.00000E+00
*****  DATA CARD N0.   2 EX   0     0     6     0  1.00000E+01  0.00000E+00  0.00000E+00  0.00000E+00  0.00000E+00  0.00000E+00
*****  DATA CARD N0.   3 EX   0     0    27     0  1.00000E+01  0.00000E+00  0.00000E+00  0.00000E+00  0.00000E+00  0.00000E+00
*****  DATA CARD N0.   4 LD   5     0     0     0  3.72000E+07  0.00000E+00  0.00000E+00  0.00000E+00  0.00000E+00  0.00000E+00
*****  DATA CARD N0.   5 PT  -1     0     0     0  0.00000E+00  0.00000E+00  0.00000E+00  0.00000E+00  0.00000E+00  0.00000E+00
*****  DATA CARD N0.   6 'P   3     1     0     3  0.00000E+00  0.00000E+00  0.00000E+00  0.00000E+00  0.00000E+00  0.00000E+00                               NEC++ Runtime Error: 
                               FAULTY DATA CARD LABEL AFTER GEOMETRY SECTION.
