


                                __________________________________________
                               |                                          |
                               | NUMERICAL ELECTROMAGNETICS CODE (nec2++) |
                               | Translated to 'C++' in Double Precision  |
                               |              Version 1.0.7 [2004-12-15]              |
                               |__________________________________________|



                               ---------------- COMMENTS ----------------
                                Length L in mtr. = .644
                                Radius R1 in cm. = 2.275
                                Radius R2 in cm. = 2.275
                                Number of turns = 20
                                Segments per turn = 20
                                Rotate X, Y, Z = 0, 0, 0
                                Move X, Y, Z = 0, 0, 0
                                Start angle A1 = 0
                                Stop angle A2 = 360
                                Nr radial wires = 18
                                Nr circular wires = 10
                                Rotate X, Y, Z = 0, 0, 0
                                Move X, Y, Z = 0, 0, 0
                               



                                -------- STRUCTURE SPECIFICATION --------
                                COORDINATES MUST BE INPUT IN
                                METERS OR BE SCALED TO METERS
                                BEFORE STRUCTURE INPUT IS ENDED
  WIRE                                                                                 SEG FIRST  LAST  TAG
   No:        X1         Y1         Z1         X2         Y2         Z2       RADIUS   No:   SEG   SEG  No:

     1     -0.0184     0.0134     0.0129    -0.0216     0.0070     0.0145     0.0010     1     1     1   10
     2     -0.0216     0.0070     0.0145    -0.0227     0.0000     0.0161     0.0010     1     2     2   11
     3     -0.0227     0.0000     0.0161    -0.0216    -0.0070     0.0177     0.0010     1     3     3   12
     4     -0.0216    -0.0070     0.0177    -0.0184    -0.0134     0.0193     0.0010     1     4     4   13
     5     -0.0184    -0.0134     0.0193    -0.0134    -0.0184     0.0209     0.0010     1     5     5   14
     6     -0.0134    -0.0184     0.0209    -0.0070    -0.0216     0.0225     0.0010     1     6     6   15
     7     -0.0070    -0.0216     0.0225     0.0000    -0.0227     0.0242     0.0010     1     7     7   16
     8      0.0000    -0.0227     0.0242     0.0070    -0.0216     0.0258     0.0010     1     8     8   17
     9      0.0070    -0.0216     0.0258     0.0134    -0.0184     0.0274     0.0010     1     9     9   18
    10      0.0134    -0.0184     0.0274     0.0184    -0.0134     0.0290     0.0010     1    10    10   19
    11      0.0184    -0.0134     0.0290     0.0216    -0.0070     0.0306     0.0010     1    11    11   20
    12      0.0216    -0.0070     0.0306     0.0227     0.0000     0.0322     0.0010     1    12    12   21
    13      0.0227     0.0000     0.0322     0.0216     0.0070     0.0338     0.0010     1    13    13   22
    14      0.0216     0.0070     0.0338     0.0184     0.0134     0.0354     0.0010     1    14    14   23
    15      0.0184     0.0134     0.0354     0.0134     0.0184     0.0370     0.0010     1    15    15   24
    16      0.0134     0.0184     0.0370     0.0070     0.0216     0.0386     0.0010     1    16    16   25
    17      0.0070     0.0216     0.0386     0.0000     0.0227     0.0403     0.0010     1    17    17   26
    18      0.0000     0.0227     0.0403    -0.0070     0.0216     0.0419     0.0010     1    18    18   27
    19     -0.0070     0.0216     0.0419    -0.0134     0.0184     0.0435     0.0010     1    19    19   28
    20     -0.0134     0.0184     0.0435    -0.0184     0.0134     0.0451     0.0010     1    20    20   29
    21     -0.0184     0.0134     0.0451    -0.0216     0.0070     0.0467     0.0010     1    21    21   30
    22     -0.0216     0.0070     0.0467    -0.0227     0.0000     0.0483     0.0010     1    22    22   31
    23     -0.0227     0.0000     0.0483    -0.0216    -0.0070     0.0499     0.0010     1    23    23   32
    24     -0.0216    -0.0070     0.0499    -0.0184    -0.0134     0.0515     0.0010     1    24    24   33
    25     -0.0184    -0.0134     0.0515    -0.0134    -0.0184     0.0531     0.0010     1    25    25   34
    26     -0.0134    -0.0184     0.0531    -0.0070    -0.0216     0.0547     0.0010     1    26    26   35
    27     -0.0070    -0.0216     0.0547     0.0000    -0.0227     0.0563     0.0010     1    27    27   36
    28      0.0000    -0.0227     0.0563     0.0070    -0.0216     0.0580     0.0010     1    28    28   37
    29      0.0070    -0.0216     0.0580     0.0134    -0.0184     0.0596     0.0010     1    29    29   38
    30      0.0134    -0.0184     0.0596     0.0184    -0.0134     0.0612     0.0010     1    30    30   39
    31      0.0184    -0.0134     0.0612     0.0216    -0.0070     0.0628     0.0010     1    31    31   40
    32      0.0216    -0.0070     0.0628     0.0227     0.0000     0.0644     0.0010     1    32    32   41
    33      0.0227     0.0000     0.0644     0.0216     0.0070     0.0660     0.0010     1    33    33   42
    34      0.0216     0.0070     0.0660     0.0184     0.0134     0.0676     0.0010     1    34    34   43
    35      0.0184     0.0134     0.0676     0.0134     0.0184     0.0692     0.0010     1    35    35   44
    36      0.0134     0.0184     0.0692     0.0070     0.0216     0.0708     0.0010     1    36    36   45
    37      0.0070     0.0216     0.0708     0.0000     0.0227     0.0725     0.0010     1    37    37   46
    38      0.0000     0.0227     0.0725    -0.0070     0.0216     0.0741     0.0010     1    38    38   47
    39     -0.0070     0.0216     0.0741    -0.0134     0.0184     0.0757     0.0010     1    39    39   48
    40     -0.0134     0.0184     0.0757    -0.0184     0.0134     0.0773     0.0010     1    40    40   49
    41     -0.0184     0.0134     0.0773    -0.0216     0.0070     0.0789     0.0010     1    41    41   50
    42     -0.0216     0.0070     0.0789    -0.0227     0.0000     0.0805     0.0010     1    42    42   51
    43     -0.0227     0.0000     0.0805    -0.0216    -0.0070     0.0821     0.0010     1    43    43   52
    44     -0.0216    -0.0070     0.0821    -0.0184    -0.0134     0.0837     0.0010     1    44    44   53
    45     -0.0184    -0.0134     0.0837    -0.0134    -0.0184     0.0853     0.0010     1    45    45   54
    46     -0.0134    -0.0184     0.0853    -0.0070    -0.0216     0.0869     0.0010     1    46    46   55
    47     -0.0070    -0.0216     0.0869     0.0000    -0.0227     0.0886     0.0010     1    47    47   56
    48      0.0000    -0.0227     0.0886     0.0070    -0.0216     0.0902     0.0010     1    48    48   57
    49      0.0070    -0.0216     0.0902     0.0134    -0.0184     0.0918     0.0010     1    49    49   58
    50      0.0134    -0.0184     0.0918     0.0184    -0.0134     0.0934     0.0010     1    50    50   59
    51      0.0184    -0.0134     0.0934     0.0216    -0.0070     0.0950     0.0010     1    51    51   60
    52      0.0216    -0.0070     0.0950     0.0227     0.0000     0.0966     0.0010     1    52    52   61
    53      0.0227     0.0000     0.0966     0.0216     0.0070     0.0982     0.0010     1    53    53   62
    54      0.0216     0.0070     0.0982     0.0184     0.0134     0.0998     0.0010     1    54    54   63
    55      0.0184     0.0134     0.0998     0.0134     0.0184     0.1014     0.0010     1    55    55   64
    56      0.0134     0.0184     0.1014     0.0070     0.0216     0.1030     0.0010     1    56    56   65
    57      0.0070     0.0216     0.1030     0.0000     0.0227     0.1047     0.0010     1    57    57   66
    58      0.0000     0.0227     0.1047    -0.0070     0.0216     0.1063     0.0010     1    58    58   67
    59     -0.0070     0.0216     0.1063    -0.0134     0.0184     0.1079     0.0010     1    59    59   68
    60     -0.0134     0.0184     0.1079    -0.0184     0.0134     0.1095     0.0010     1    60    60   69
    61     -0.0184     0.0134     0.1095    -0.0216     0.0070     0.1111     0.0010     1    61    61   70
    62     -0.0216     0.0070     0.1111    -0.0227     0.0000     0.1127     0.0010     1    62    62   71
    63     -0.0227     0.0000     0.1127    -0.0216    -0.0070     0.1143     0.0010     1    63    63   72
    64     -0.0216    -0.0070     0.1143    -0.0184    -0.0134     0.1159     0.0010     1    64    64   73
    65     -0.0184    -0.0134     0.1159    -0.0134    -0.0184     0.1175     0.0010     1    65    65   74
    66     -0.0134    -0.0184     0.1175    -0.0070    -0.0216     0.1191     0.0010     1    66    66   75
    67     -0.0070    -0.0216     0.1191     0.0000    -0.0227     0.1207     0.0010     1    67    67   76
    68      0.0000    -0.0227     0.1207     0.0070    -0.0216     0.1224     0.0010     1    68    68   77
    69      0.0070    -0.0216     0.1224     0.0134    -0.0184     0.1240     0.0010     1    69    69   78
    70      0.0134    -0.0184     0.1240     0.0184    -0.0134     0.1256     0.0010     1    70    70   79
    71      0.0184    -0.0134     0.1256     0.0216    -0.0070     0.1272     0.0010     1    71    71   80
    72      0.0216    -0.0070     0.1272     0.0227     0.0000     0.1288     0.0010     1    72    72   81
    73      0.0227     0.0000     0.1288     0.0216     0.0070     0.1304     0.0010     1    73    73   82
    74      0.0216     0.0070     0.1304     0.0184     0.0134     0.1320     0.0010     1    74    74   83
    75      0.0184     0.0134     0.1320     0.0134     0.0184     0.1336     0.0010     1    75    75   84
    76      0.0134     0.0184     0.1336     0.0070     0.0216     0.1352     0.0010     1    76    76   85
    77      0.0070     0.0216     0.1352     0.0000     0.0227     0.1368     0.0010     1    77    77   86
    78      0.0000     0.0227     0.1368    -0.0070     0.0216     0.1385     0.0010     1    78    78   87
    79     -0.0070     0.0216     0.1385    -0.0134     0.0184     0.1401     0.0010     1    79    79   88
    80     -0.0134     0.0184     0.1401    -0.0184     0.0134     0.1417     0.0010     1    80    80   89
    81     -0.0184     0.0134     0.1417    -0.0216     0.0070     0.1433     0.0010     1    81    81   90
    82     -0.0216     0.0070     0.1433    -0.0227     0.0000     0.1449     0.0010     1    82    82   91
    83     -0.0227     0.0000     0.1449    -0.0216    -0.0070     0.1465     0.0010     1    83    83   92
    84     -0.0216    -0.0070     0.1465    -0.0184    -0.0134     0.1481     0.0010     1    84    84   93
    85     -0.0184    -0.0134     0.1481    -0.0134    -0.0184     0.1497     0.0010     1    85    85   94
    86     -0.0134    -0.0184     0.1497    -0.0070    -0.0216     0.1513     0.0010     1    86    86   95
    87     -0.0070    -0.0216     0.1513     0.0000    -0.0227     0.1530     0.0010     1    87    87   96
    88      0.0000    -0.0227     0.1530     0.0070    -0.0216     0.1546     0.0010     1    88    88   97
    89      0.0070    -0.0216     0.1546     0.0134    -0.0184     0.1562     0.0010     1    89    89   98
    90      0.0134    -0.0184     0.1562     0.0184    -0.0134     0.1578     0.0010     1    90    90   99
    91      0.0184    -0.0134     0.1578     0.0216    -0.0070     0.1594     0.0010     1    91    91  100
    92      0.0216    -0.0070     0.1594     0.0227     0.0000     0.1610     0.0010     1    92    92  101
    93      0.0227     0.0000     0.1610     0.0216     0.0070     0.1626     0.0010     1    93    93  102
    94      0.0216     0.0070     0.1626     0.0184     0.0134     0.1642     0.0010     1    94    94  103
    95      0.0184     0.0134     0.1642     0.0134     0.0184     0.1658     0.0010     1    95    95  104
    96      0.0134     0.0184     0.1658     0.0070     0.0216     0.1674     0.0010     1    96    96  105
    97      0.0070     0.0216     0.1674     0.0000     0.0227     0.1691     0.0010     1    97    97  106
    98      0.0000     0.0227     0.1691    -0.0070     0.0216     0.1707     0.0010     1    98    98  107
    99     -0.0070     0.0216     0.1707    -0.0134     0.0184     0.1723     0.0010     1    99    99  108
   100     -0.0134     0.0184     0.1723    -0.0184     0.0134     0.1739     0.0010     1   100   100  109
   101     -0.0184     0.0134     0.1739    -0.0216     0.0070     0.1755     0.0010     1   101   101  110
   102     -0.0216     0.0070     0.1755    -0.0227     0.0000     0.1771     0.0010     1   102   102  111
   103     -0.0227     0.0000     0.1771    -0.0216    -0.0070     0.1787     0.0010     1   103   103  112
   104     -0.0216    -0.0070     0.1787    -0.0184    -0.0134     0.1803     0.0010     1   104   104  113
   105     -0.0184    -0.0134     0.1803    -0.0134    -0.0184     0.1819     0.0010     1   105   105  114
   106     -0.0134    -0.0184     0.1819    -0.0070    -0.0216     0.1835     0.0010     1   106   106  115
   107     -0.0070    -0.0216     0.1835     0.0000    -0.0227     0.1852     0.0010     1   107   107  116
   108      0.0000    -0.0227     0.1852     0.0070    -0.0216     0.1868     0.0010     1   108   108  117
   109      0.0070    -0.0216     0.1868     0.0134    -0.0184     0.1884     0.0010     1   109   109  118
   110      0.0134    -0.0184     0.1884     0.0184    -0.0134     0.1900     0.0010     1   110   110  119
   111      0.0184    -0.0134     0.1900     0.0216    -0.0070     0.1916     0.0010     1   111   111  120
   112      0.0216    -0.0070     0.1916     0.0227     0.0000     0.1932     0.0010     1   112   112  121
   113      0.0227     0.0000     0.1932     0.0216     0.0070     0.1948     0.0010     1   113   113  122
   114      0.0216     0.0070     0.1948     0.0184     0.0134     0.1964     0.0010     1   114   114  123
   115      0.0184     0.0134     0.1964     0.0134     0.0184     0.1980     0.0010     1   115   115  124
   116      0.0134     0.0184     0.1980     0.0070     0.0216     0.1996     0.0010     1   116   116  125
   117      0.0070     0.0216     0.1996     0.0000     0.0227     0.2013     0.0010     1   117   117  126
   118      0.0000     0.0227     0.2013    -0.0070     0.0216     0.2029     0.0010     1   118   118  127
   119     -0.0070     0.0216     0.2029    -0.0134     0.0184     0.2045     0.0010     1   119   119  128
   120     -0.0134     0.0184     0.2045    -0.0184     0.0134     0.2061     0.0010     1   120   120  129
   121     -0.0184     0.0134     0.2061    -0.0216     0.0070     0.2077     0.0010     1   121   121  130
   122     -0.0216     0.0070     0.2077    -0.0227     0.0000     0.2093     0.0010     1   122   122  131
   123     -0.0227     0.0000     0.2093    -0.0216    -0.0070     0.2109     0.0010     1   123   123  132
   124     -0.0216    -0.0070     0.2109    -0.0184    -0.0134     0.2125     0.0010     1   124   124  133
   125     -0.0184    -0.0134     0.2125    -0.0134    -0.0184     0.2141     0.0010     1   125   125  134
   126     -0.0134    -0.0184     0.2141    -0.0070    -0.0216     0.2157     0.0010     1   126   126  135
   127     -0.0070    -0.0216     0.2157     0.0000    -0.0227     0.2173     0.0010     1   127   127  136
   128      0.0000    -0.0227     0.2173     0.0070    -0.0216     0.2190     0.0010     1   128   128  137
   129      0.0070    -0.0216     0.2190     0.0134    -0.0184     0.2206     0.0010     1   129   129  138
   130      0.0134    -0.0184     0.2206     0.0184    -0.0134     0.2222     0.0010     1   130   130  139
   131      0.0184    -0.0134     0.2222     0.0216    -0.0070     0.2238     0.0010     1   131   131  140
   132      0.0216    -0.0070     0.2238     0.0227     0.0000     0.2254     0.0010     1   132   132  141
   133      0.0227     0.0000     0.2254     0.0216     0.0070     0.2270     0.0010     1   133   133  142
   134      0.0216     0.0070     0.2270     0.0184     0.0134     0.2286     0.0010     1   134   134  143
   135      0.0184     0.0134     0.2286     0.0134     0.0184     0.2302     0.0010     1   135   135  144
   136      0.0134     0.0184     0.2302     0.0070     0.0216     0.2318     0.0010     1   136   136  145
   137      0.0070     0.0216     0.2318     0.0000     0.0227     0.2334     0.0010     1   137   137  146
   138      0.0000     0.0227     0.2334    -0.0070     0.0216     0.2351     0.0010     1   138   138  147
   139     -0.0070     0.0216     0.2351    -0.0134     0.0184     0.2367     0.0010     1   139   139  148
   140     -0.0134     0.0184     0.2367    -0.0184     0.0134     0.2383     0.0010     1   140   140  149
   141     -0.0184     0.0134     0.2383    -0.0216     0.0070     0.2399     0.0010     1   141   141  150
   142     -0.0216     0.0070     0.2399    -0.0227     0.0000     0.2415     0.0010     1   142   142  151
   143     -0.0227     0.0000     0.2415    -0.0216    -0.0070     0.2431     0.0010     1   143   143  152
   144     -0.0216    -0.0070     0.2431    -0.0184    -0.0134     0.2447     0.0010     1   144   144  153
   145     -0.0184    -0.0134     0.2447    -0.0134    -0.0184     0.2463     0.0010     1   145   145  154
   146     -0.0134    -0.0184     0.2463    -0.0070    -0.0216     0.2479     0.0010     1   146   146  155
   147     -0.0070    -0.0216     0.2479     0.0000    -0.0227     0.2495     0.0010     1   147   147  156
   148      0.0000    -0.0227     0.2495     0.0070    -0.0216     0.2512     0.0010     1   148   148  157
   149      0.0070    -0.0216     0.2512     0.0134    -0.0184     0.2528     0.0010     1   149   149  158
   150      0.0134    -0.0184     0.2528     0.0184    -0.0134     0.2544     0.0010     1   150   150  159
   151      0.0184    -0.0134     0.2544     0.0216    -0.0070     0.2560     0.0010     1   151   151  160
   152      0.0216    -0.0070     0.2560     0.0227     0.0000     0.2576     0.0010     1   152   152  161
   153      0.0227     0.0000     0.2576     0.0216     0.0070     0.2592     0.0010     1   153   153  162
   154      0.0216     0.0070     0.2592     0.0184     0.0134     0.2608     0.0010     1   154   154  163
   155      0.0184     0.0134     0.2608     0.0134     0.0184     0.2624     0.0010     1   155   155  164
   156      0.0134     0.0184     0.2624     0.0070     0.0216     0.2640     0.0010     1   156   156  165
   157      0.0070     0.0216     0.2640     0.0000     0.0227     0.2656     0.0010     1   157   157  166
   158      0.0000     0.0227     0.2656    -0.0070     0.0216     0.2673     0.0010     1   158   158  167
   159     -0.0070     0.0216     0.2673    -0.0134     0.0184     0.2689     0.0010     1   159   159  168
   160     -0.0134     0.0184     0.2689    -0.0184     0.0134     0.2705     0.0010     1   160   160  169
   161     -0.0184     0.0134     0.2705    -0.0216     0.0070     0.2721     0.0010     1   161   161  170
   162     -0.0216     0.0070     0.2721    -0.0227     0.0000     0.2737     0.0010     1   162   162  171
   163     -0.0227     0.0000     0.2737    -0.0216    -0.0070     0.2753     0.0010     1   163   163  172
   164     -0.0216    -0.0070     0.2753    -0.0184    -0.0134     0.2769     0.0010     1   164   164  173
   165     -0.0184    -0.0134     0.2769    -0.0134    -0.0184     0.2785     0.0010     1   165   165  174
   166     -0.0134    -0.0184     0.2785    -0.0070    -0.0216     0.2801     0.0010     1   166   166  175
   167     -0.0070    -0.0216     0.2801     0.0000    -0.0227     0.2818     0.0010     1   167   167  176
   168      0.0000    -0.0227     0.2818     0.0070    -0.0216     0.2834     0.0010     1   168   168  177
   169      0.0070    -0.0216     0.2834     0.0134    -0.0184     0.2850     0.0010     1   169   169  178
   170      0.0134    -0.0184     0.2850     0.0184    -0.0134     0.2866     0.0010     1   170   170  179
   171      0.0184    -0.0134     0.2866     0.0216    -0.0070     0.2882     0.0010     1   171   171  180
   172      0.0216    -0.0070     0.2882     0.0227     0.0000     0.2898     0.0010     1   172   172  181
   173      0.0227     0.0000     0.2898     0.0216     0.0070     0.2914     0.0010     1   173   173  182
   174      0.0216     0.0070     0.2914     0.0184     0.0134     0.2930     0.0010     1   174   174  183
   175      0.0184     0.0134     0.2930     0.0134     0.0184     0.2946     0.0010     1   175   175  184
   176      0.0134     0.0184     0.2946     0.0070     0.0216     0.2962     0.0010     1   176   176  185
   177      0.0070     0.0216     0.2962     0.0000     0.0227     0.2979     0.0010     1   177   177  186
   178      0.0000     0.0227     0.2979    -0.0070     0.0216     0.2995     0.0010     1   178   178  187
   179     -0.0070     0.0216     0.2995    -0.0134     0.0184     0.3011     0.0010     1   179   179  188
   180     -0.0134     0.0184     0.3011    -0.0184     0.0134     0.3027     0.0010     1   180   180  189
   181     -0.0184     0.0134     0.3027    -0.0216     0.0070     0.3043     0.0010     1   181   181  190
   182     -0.0216     0.0070     0.3043    -0.0227     0.0000     0.3059     0.0010     1   182   182  191
   183     -0.0227     0.0000     0.3059    -0.0216    -0.0070     0.3075     0.0010     1   183   183  192
   184     -0.0216    -0.0070     0.3075    -0.0184    -0.0134     0.3091     0.0010     1   184   184  193
   185     -0.0184    -0.0134     0.3091    -0.0134    -0.0184     0.3107     0.0010     1   185   185  194
   186     -0.0134    -0.0184     0.3107    -0.0070    -0.0216     0.3123     0.0010     1   186   186  195
   187     -0.0070    -0.0216     0.3123     0.0000    -0.0227     0.3140     0.0010     1   187   187  196
   188      0.0000    -0.0227     0.3140     0.0070    -0.0216     0.3156     0.0010     1   188   188  197
   189      0.0070    -0.0216     0.3156     0.0134    -0.0184     0.3172     0.0010     1   189   189  198
   190      0.0134    -0.0184     0.3172     0.0184    -0.0134     0.3188     0.0010     1   190   190  199
   191      0.0184    -0.0134     0.3188     0.0216    -0.0070     0.3204     0.0010     1   191   191  200
   192      0.0216    -0.0070     0.3204     0.0227     0.0000     0.3220     0.0010     1   192   192  201
   193      0.0227     0.0000     0.3220     0.0216     0.0070     0.3236     0.0010     1   193   193  202
   194      0.0216     0.0070     0.3236     0.0184     0.0134     0.3252     0.0010     1   194   194  203
   195      0.0184     0.0134     0.3252     0.0134     0.0184     0.3268     0.0010     1   195   195  204
   196      0.0134     0.0184     0.3268     0.0070     0.0216     0.3284     0.0010     1   196   196  205
   197      0.0070     0.0216     0.3284     0.0000     0.0227     0.3301     0.0010     1   197   197  206
   198      0.0000     0.0227     0.3301    -0.0070     0.0216     0.3317     0.0010     1   198   198  207
   199     -0.0070     0.0216     0.3317    -0.0134     0.0184     0.3333     0.0010     1   199   199  208
   200     -0.0134     0.0184     0.3333    -0.0184     0.0134     0.3349     0.0010     1   200   200  209
   201     -0.0184     0.0134     0.3349    -0.0216     0.0070     0.3365     0.0010     1   201   201  210
   202     -0.0216     0.0070     0.3365    -0.0227     0.0000     0.3381     0.0010     1   202   202  211
   203     -0.0227     0.0000     0.3381    -0.0216    -0.0070     0.3397     0.0010     1   203   203  212
   204     -0.0216    -0.0070     0.3397    -0.0184    -0.0134     0.3413     0.0010     1   204   204  213
   205     -0.0184    -0.0134     0.3413    -0.0134    -0.0184     0.3429     0.0010     1   205   205  214
   206     -0.0134    -0.0184     0.3429    -0.0070    -0.0216     0.3445     0.0010     1   206   206  215
   207     -0.0070    -0.0216     0.3445     0.0000    -0.0227     0.3462     0.0010     1   207   207  216
   208      0.0000    -0.0227     0.3462     0.0070    -0.0216     0.3478     0.0010     1   208   208  217
   209      0.0070    -0.0216     0.3478     0.0134    -0.0184     0.3494     0.0010     1   209   209  218
   210      0.0134    -0.0184     0.3494     0.0184    -0.0134     0.3510     0.0010     1   210   210  219
   211      0.0184    -0.0134     0.3510     0.0216    -0.0070     0.3526     0.0010     1   211   211  220
   212      0.0216    -0.0070     0.3526     0.0227     0.0000     0.3542     0.0010     1   212   212  221
   213      0.0227     0.0000     0.3542     0.0216     0.0070     0.3558     0.0010     1   213   213  222
   214      0.0216     0.0070     0.3558     0.0184     0.0134     0.3574     0.0010     1   214   214  223
   215      0.0184     0.0134     0.3574     0.0134     0.0184     0.3590     0.0010     1   215   215  224
   216      0.0134     0.0184     0.3590     0.0070     0.0216     0.3606     0.0010     1   216   216  225
   217      0.0070     0.0216     0.3606     0.0000     0.0227     0.3623     0.0010     1   217   217  226
   218      0.0000     0.0227     0.3623    -0.0070     0.0216     0.3639     0.0010     1   218   218  227
   219     -0.0070     0.0216     0.3639    -0.0134     0.0184     0.3655     0.0010     1   219   219  228
   220     -0.0134     0.0184     0.3655    -0.0184     0.0134     0.3671     0.0010     1   220   220  229
   221     -0.0184     0.0134     0.3671    -0.0216     0.0070     0.3687     0.0010     1   221   221  230
   222     -0.0216     0.0070     0.3687    -0.0227     0.0000     0.3703     0.0010     1   222   222  231
   223     -0.0227     0.0000     0.3703    -0.0216    -0.0070     0.3719     0.0010     1   223   223  232
   224     -0.0216    -0.0070     0.3719    -0.0184    -0.0134     0.3735     0.0010     1   224   224  233
   225     -0.0184    -0.0134     0.3735    -0.0134    -0.0184     0.3751     0.0010     1   225   225  234
   226     -0.0134    -0.0184     0.3751    -0.0070    -0.0216     0.3767     0.0010     1   226   226  235
   227     -0.0070    -0.0216     0.3767     0.0000    -0.0227     0.3784     0.0010     1   227   227  236
   228      0.0000    -0.0227     0.3784     0.0070    -0.0216     0.3800     0.0010     1   228   228  237
   229      0.0070    -0.0216     0.3800     0.0134    -0.0184     0.3816     0.0010     1   229   229  238
   230      0.0134    -0.0184     0.3816     0.0184    -0.0134     0.3832     0.0010     1   230   230  239
   231      0.0184    -0.0134     0.3832     0.0216    -0.0070     0.3848     0.0010     1   231   231  240
   232      0.0216    -0.0070     0.3848     0.0227     0.0000     0.3864     0.0010     1   232   232  241
   233      0.0227     0.0000     0.3864     0.0216     0.0070     0.3880     0.0010     1   233   233  242
   234      0.0216     0.0070     0.3880     0.0184     0.0134     0.3896     0.0010     1   234   234  243
   235      0.0184     0.0134     0.3896     0.0134     0.0184     0.3912     0.0010     1   235   235  244
   236      0.0134     0.0184     0.3912     0.0070     0.0216     0.3928     0.0010     1   236   236  245
   237      0.0070     0.0216     0.3928     0.0000     0.0227     0.3945     0.0010     1   237   237  246
   238      0.0000     0.0227     0.3945    -0.0070     0.0216     0.3961     0.0010     1   238   238  247
   239     -0.0070     0.0216     0.3961    -0.0134     0.0184     0.3977     0.0010     1   239   239  248
   240     -0.0134     0.0184     0.3977    -0.0184     0.0134     0.3993     0.0010     1   240   240  249
   241     -0.0184     0.0134     0.3993    -0.0216     0.0070     0.4009     0.0010     1   241   241  250
   242     -0.0216     0.0070     0.4009    -0.0227     0.0000     0.4025     0.0010     1   242   242  251
   243     -0.0227     0.0000     0.4025    -0.0216    -0.0070     0.4041     0.0010     1   243   243  252
   244     -0.0216    -0.0070     0.4041    -0.0184    -0.0134     0.4057     0.0010     1   244   244  253
   245     -0.0184    -0.0134     0.4057    -0.0134    -0.0184     0.4073     0.0010     1   245   245  254
   246     -0.0134    -0.0184     0.4073    -0.0070    -0.0216     0.4089     0.0010     1   246   246  255
   247     -0.0070    -0.0216     0.4089     0.0000    -0.0227     0.4106     0.0010     1   247   247  256
   248      0.0000    -0.0227     0.4106     0.0070    -0.0216     0.4122     0.0010     1   248   248  257
   249      0.0070    -0.0216     0.4122     0.0134    -0.0184     0.4138     0.0010     1   249   249  258
   250      0.0134    -0.0184     0.4138     0.0184    -0.0134     0.4154     0.0010     1   250   250  259
   251      0.0184    -0.0134     0.4154     0.0216    -0.0070     0.4170     0.0010     1   251   251  260
   252      0.0216    -0.0070     0.4170     0.0227     0.0000     0.4186     0.0010     1   252   252  261
   253      0.0227     0.0000     0.4186     0.0216     0.0070     0.4202     0.0010     1   253   253  262
   254      0.0216     0.0070     0.4202     0.0184     0.0134     0.4218     0.0010     1   254   254  263
   255      0.0184     0.0134     0.4218     0.0134     0.0184     0.4234     0.0010     1   255   255  264
   256      0.0134     0.0184     0.4234     0.0070     0.0216     0.4250     0.0010     1   256   256  265
   257      0.0070     0.0216     0.4250     0.0000     0.0227     0.4266     0.0010     1   257   257  266
   258      0.0000     0.0227     0.4266    -0.0070     0.0216     0.4283     0.0010     1   258   258  267
   259     -0.0070     0.0216     0.4283    -0.0134     0.0184     0.4299     0.0010     1   259   259  268
   260     -0.0134     0.0184     0.4299    -0.0184     0.0134     0.4315     0.0010     1   260   260  269
   261     -0.0184     0.0134     0.4315    -0.0216     0.0070     0.4331     0.0010     1   261   261  270
   262     -0.0216     0.0070     0.4331    -0.0227     0.0000     0.4347     0.0010     1   262   262  271
   263     -0.0227     0.0000     0.4347    -0.0216    -0.0070     0.4363     0.0010     1   263   263  272
   264     -0.0216    -0.0070     0.4363    -0.0184    -0.0134     0.4379     0.0010     1   264   264  273
   265     -0.0184    -0.0134     0.4379    -0.0134    -0.0184     0.4395     0.0010     1   265   265  274
   266     -0.0134    -0.0184     0.4395    -0.0070    -0.0216     0.4411     0.0010     1   266   266  275
   267     -0.0070    -0.0216     0.4411     0.0000    -0.0227     0.4427     0.0010     1   267   267  276
   268      0.0000    -0.0227     0.4427     0.0070    -0.0216     0.4444     0.0010     1   268   268  277
   269      0.0070    -0.0216     0.4444     0.0134    -0.0184     0.4460     0.0010     1   269   269  278
   270      0.0134    -0.0184     0.4460     0.0184    -0.0134     0.4476     0.0010     1   270   270  279
   271      0.0184    -0.0134     0.4476     0.0216    -0.0070     0.4492     0.0010     1   271   271  280
   272      0.0216    -0.0070     0.4492     0.0227     0.0000     0.4508     0.0010     1   272   272  281
   273      0.0227     0.0000     0.4508     0.0216     0.0070     0.4524     0.0010     1   273   273  282
   274      0.0216     0.0070     0.4524     0.0184     0.0134     0.4540     0.0010     1   274   274  283
   275      0.0184     0.0134     0.4540     0.0134     0.0184     0.4556     0.0010     1   275   275  284
   276      0.0134     0.0184     0.4556     0.0070     0.0216     0.4572     0.0010     1   276   276  285
   277      0.0070     0.0216     0.4572     0.0000     0.0227     0.4588     0.0010     1   277   277  286
   278      0.0000     0.0227     0.4588    -0.0070     0.0216     0.4605     0.0010     1   278   278  287
   279     -0.0070     0.0216     0.4605    -0.0134     0.0184     0.4621     0.0010     1   279   279  288
   280     -0.0134     0.0184     0.4621    -0.0184     0.0134     0.4637     0.0010     1   280   280  289
   281     -0.0184     0.0134     0.4637    -0.0216     0.0070     0.4653     0.0010     1   281   281  290
   282     -0.0216     0.0070     0.4653    -0.0227     0.0000     0.4669     0.0010     1   282   282  291
   283     -0.0227     0.0000     0.4669    -0.0216    -0.0070     0.4685     0.0010     1   283   283  292
   284     -0.0216    -0.0070     0.4685    -0.0184    -0.0134     0.4701     0.0010     1   284   284  293
   285     -0.0184    -0.0134     0.4701    -0.0134    -0.0184     0.4717     0.0010     1   285   285  294
   286     -0.0134    -0.0184     0.4717    -0.0070    -0.0216     0.4733     0.0010     1   286   286  295
   287     -0.0070    -0.0216     0.4733     0.0000    -0.0227     0.4749     0.0010     1   287   287  296
   288      0.0000    -0.0227     0.4749     0.0070    -0.0216     0.4766     0.0010     1   288   288  297
   289      0.0070    -0.0216     0.4766     0.0134    -0.0184     0.4782     0.0010     1   289   289  298
   290      0.0134    -0.0184     0.4782     0.0184    -0.0134     0.4798     0.0010     1   290   290  299
   291      0.0184    -0.0134     0.4798     0.0216    -0.0070     0.4814     0.0010     1   291   291  300
   292      0.0216    -0.0070     0.4814     0.0227     0.0000     0.4830     0.0010     1   292   292  301
   293      0.0227     0.0000     0.4830     0.0216     0.0070     0.4846     0.0010     1   293   293  302
   294      0.0216     0.0070     0.4846     0.0184     0.0134     0.4862     0.0010     1   294   294  303
   295      0.0184     0.0134     0.4862     0.0134     0.0184     0.4878     0.0010     1   295   295  304
   296      0.0134     0.0184     0.4878     0.0070     0.0216     0.4894     0.0010     1   296   296  305
   297      0.0070     0.0216     0.4894     0.0000     0.0227     0.4910     0.0010     1   297   297  306
   298      0.0000     0.0227     0.4910    -0.0070     0.0216     0.4927     0.0010     1   298   298  307
   299     -0.0070     0.0216     0.4927    -0.0134     0.0184     0.4943     0.0010     1   299   299  308
   300     -0.0134     0.0184     0.4943    -0.0184     0.0134     0.4959     0.0010     1   300   300  309
   301     -0.0184     0.0134     0.4959    -0.0216     0.0070     0.4975     0.0010     1   301   301  310
   302     -0.0216     0.0070     0.4975    -0.0227     0.0000     0.4991     0.0010     1   302   302  311
   303     -0.0227     0.0000     0.4991    -0.0216    -0.0070     0.5007     0.0010     1   303   303  312
   304     -0.0216    -0.0070     0.5007    -0.0184    -0.0134     0.5023     0.0010     1   304   304  313
   305     -0.0184    -0.0134     0.5023    -0.0134    -0.0184     0.5039     0.0010     1   305   305  314
   306     -0.0134    -0.0184     0.5039    -0.0070    -0.0216     0.5055     0.0010     1   306   306  315
   307     -0.0070    -0.0216     0.5055     0.0000    -0.0227     0.5071     0.0010     1   307   307  316
   308      0.0000    -0.0227     0.5071     0.0070    -0.0216     0.5088     0.0010     1   308   308  317
   309      0.0070    -0.0216     0.5088     0.0134    -0.0184     0.5104     0.0010     1   309   309  318
   310      0.0134    -0.0184     0.5104     0.0184    -0.0134     0.5120     0.0010     1   310   310  319
   311      0.0184    -0.0134     0.5120     0.0216    -0.0070     0.5136     0.0010     1   311   311  320
   312      0.0216    -0.0070     0.5136     0.0227     0.0000     0.5152     0.0010     1   312   312  321
   313      0.0227     0.0000     0.5152     0.0216     0.0070     0.5168     0.0010     1   313   313  322
   314      0.0216     0.0070     0.5168     0.0184     0.0134     0.5184     0.0010     1   314   314  323
   315      0.0184     0.0134     0.5184     0.0134     0.0184     0.5200     0.0010     1   315   315  324
   316      0.0134     0.0184     0.5200     0.0070     0.0216     0.5216     0.0010     1   316   316  325
   317      0.0070     0.0216     0.5216     0.0000     0.0227     0.5232     0.0010     1   317   317  326
   318      0.0000     0.0227     0.5232    -0.0070     0.0216     0.5249     0.0010     1   318   318  327
   319     -0.0070     0.0216     0.5249    -0.0134     0.0184     0.5265     0.0010     1   319   319  328
   320     -0.0134     0.0184     0.5265    -0.0184     0.0134     0.5281     0.0010     1   320   320  329
   321     -0.0184     0.0134     0.5281    -0.0216     0.0070     0.5297     0.0010     1   321   321  330
   322     -0.0216     0.0070     0.5297    -0.0227     0.0000     0.5313     0.0010     1   322   322  331
   323     -0.0227     0.0000     0.5313    -0.0216    -0.0070     0.5329     0.0010     1   323   323  332
   324     -0.0216    -0.0070     0.5329    -0.0184    -0.0134     0.5345     0.0010     1   324   324  333
   325     -0.0184    -0.0134     0.5345    -0.0134    -0.0184     0.5361     0.0010     1   325   325  334
   326     -0.0134    -0.0184     0.5361    -0.0070    -0.0216     0.5377     0.0010     1   326   326  335
   327     -0.0070    -0.0216     0.5377     0.0000    -0.0227     0.5393     0.0010     1   327   327  336
   328      0.0000    -0.0227     0.5393     0.0070    -0.0216     0.5410     0.0010     1   328   328  337
   329      0.0070    -0.0216     0.5410     0.0134    -0.0184     0.5426     0.0010     1   329   329  338
   330      0.0134    -0.0184     0.5426     0.0184    -0.0134     0.5442     0.0010     1   330   330  339
   331      0.0184    -0.0134     0.5442     0.0216    -0.0070     0.5458     0.0010     1   331   331  340
   332      0.0216    -0.0070     0.5458     0.0227     0.0000     0.5474     0.0010     1   332   332  341
   333      0.0227     0.0000     0.5474     0.0216     0.0070     0.5490     0.0010     1   333   333  342
   334      0.0216     0.0070     0.5490     0.0184     0.0134     0.5506     0.0010     1   334   334  343
   335      0.0184     0.0134     0.5506     0.0134     0.0184     0.5522     0.0010     1   335   335  344
   336      0.0134     0.0184     0.5522     0.0070     0.0216     0.5538     0.0010     1   336   336  345
   337      0.0070     0.0216     0.5538     0.0000     0.0227     0.5554     0.0010     1   337   337  346
   338      0.0000     0.0227     0.5554    -0.0070     0.0216     0.5571     0.0010     1   338   338  347
   339     -0.0070     0.0216     0.5571    -0.0134     0.0184     0.5587     0.0010     1   339   339  348
   340     -0.0134     0.0184     0.5587    -0.0184     0.0134     0.5603     0.0010     1   340   340  349
   341     -0.0184     0.0134     0.5603    -0.0216     0.0070     0.5619     0.0010     1   341   341  350
   342     -0.0216     0.0070     0.5619    -0.0227     0.0000     0.5635     0.0010     1   342   342  351
   343     -0.0227     0.0000     0.5635    -0.0216    -0.0070     0.5651     0.0010     1   343   343  352
   344     -0.0216    -0.0070     0.5651    -0.0184    -0.0134     0.5667     0.0010     1   344   344  353
   345     -0.0184    -0.0134     0.5667    -0.0134    -0.0184     0.5683     0.0010     1   345   345  354
   346     -0.0134    -0.0184     0.5683    -0.0070    -0.0216     0.5699     0.0010     1   346   346  355
   347     -0.0070    -0.0216     0.5699     0.0000    -0.0227     0.5716     0.0010     1   347   347  356
   348      0.0000    -0.0227     0.5716     0.0070    -0.0216     0.5732     0.0010     1   348   348  357
   349      0.0070    -0.0216     0.5732     0.0134    -0.0184     0.5748     0.0010     1   349   349  358
   350      0.0134    -0.0184     0.5748     0.0184    -0.0134     0.5764     0.0010     1   350   350  359
   351      0.0184    -0.0134     0.5764     0.0216    -0.0070     0.5780     0.0010     1   351   351  360
   352      0.0216    -0.0070     0.5780     0.0227     0.0000     0.5796     0.0010     1   352   352  361
   353      0.0227     0.0000     0.5796     0.0216     0.0070     0.5812     0.0010     1   353   353  362
   354      0.0216     0.0070     0.5812     0.0184     0.0134     0.5828     0.0010     1   354   354  363
   355      0.0184     0.0134     0.5828     0.0134     0.0184     0.5844     0.0010     1   355   355  364
   356      0.0134     0.0184     0.5844     0.0070     0.0216     0.5860     0.0010     1   356   356  365
   357      0.0070     0.0216     0.5860     0.0000     0.0227     0.5877     0.0010     1   357   357  366
   358      0.0000     0.0227     0.5877    -0.0070     0.0216     0.5893     0.0010     1   358   358  367
   359     -0.0070     0.0216     0.5893    -0.0134     0.0184     0.5909     0.0010     1   359   359  368
   360     -0.0134     0.0184     0.5909    -0.0184     0.0134     0.5925     0.0010     1   360   360  369
   361     -0.0184     0.0134     0.5925    -0.0216     0.0070     0.5941     0.0010     1   361   361  370
   362     -0.0216     0.0070     0.5941    -0.0227     0.0000     0.5957     0.0010     1   362   362  371
   363     -0.0227     0.0000     0.5957    -0.0216    -0.0070     0.5973     0.0010     1   363   363  372
   364     -0.0216    -0.0070     0.5973    -0.0184    -0.0134     0.5989     0.0010     1   364   364  373
   365     -0.0184    -0.0134     0.5989    -0.0134    -0.0184     0.6005     0.0010     1   365   365  374
   366     -0.0134    -0.0184     0.6005    -0.0070    -0.0216     0.6021     0.0010     1   366   366  375
   367     -0.0070    -0.0216     0.6021     0.0000    -0.0227     0.6038     0.0010     1   367   367  376
   368      0.0000    -0.0227     0.6038     0.0070    -0.0216     0.6054     0.0010     1   368   368  377
   369      0.0070    -0.0216     0.6054     0.0134    -0.0184     0.6070     0.0010     1   369   369  378
   370      0.0134    -0.0184     0.6070     0.0184    -0.0134     0.6086     0.0010     1   370   370  379
   371      0.0184    -0.0134     0.6086     0.0216    -0.0070     0.6102     0.0010     1   371   371  380
   372      0.0216    -0.0070     0.6102     0.0227     0.0000     0.6118     0.0010     1   372   372  381
   373      0.0227     0.0000     0.6118     0.0216     0.0070     0.6134     0.0010     1   373   373  382
   374      0.0216     0.0070     0.6134     0.0184     0.0134     0.6150     0.0010     1   374   374  383
   375      0.0184     0.0134     0.6150     0.0134     0.0184     0.6166     0.0010     1   375   375  384
   376      0.0134     0.0184     0.6166     0.0070     0.0216     0.6182     0.0010     1   376   376  385
   377      0.0070     0.0216     0.6182     0.0000     0.0227     0.6199     0.0010     1   377   377  386
   378      0.0000     0.0227     0.6199    -0.0070     0.0216     0.6215     0.0010     1   378   378  387
   379     -0.0070     0.0216     0.6215    -0.0134     0.0184     0.6231     0.0010     1   379   379  388
   380     -0.0134     0.0184     0.6231    -0.0184     0.0134     0.6247     0.0010     1   380   380  389
   381     -0.0184     0.0134     0.6247    -0.0216     0.0070     0.6263     0.0010     1   381   381  390
   382     -0.0216     0.0070     0.6263    -0.0227     0.0000     0.6279     0.0010     1   382   382  391
   383     -0.0227     0.0000     0.6279    -0.0216    -0.0070     0.6295     0.0010     1   383   383  392
   384     -0.0216    -0.0070     0.6295    -0.0184    -0.0134     0.6311     0.0010     1   384   384  393
   385     -0.0184    -0.0134     0.6311    -0.0134    -0.0184     0.6327     0.0010     1   385   385  394
   386     -0.0134    -0.0184     0.6327    -0.0070    -0.0216     0.6343     0.0010     1   386   386  395
   387     -0.0070    -0.0216     0.6343     0.0000    -0.0227     0.6360     0.0010     1   387   387  396
   388      0.0000    -0.0227     0.6360     0.0070    -0.0216     0.6376     0.0010     1   388   388  397
   389      0.0070    -0.0216     0.6376     0.0134    -0.0184     0.6392     0.0010     1   389   389  398
   390      0.0134    -0.0184     0.6392     0.0184    -0.0134     0.6408     0.0010     1   390   390  399
   391      0.0184    -0.0134     0.6408     0.0216    -0.0070     0.6424     0.0010     1   391   391  400
   392      0.0216    -0.0070     0.6424     0.0227     0.0000     0.6440     0.0010     1   392   392  401
   393      0.0227     0.0000     0.6440     0.0000     0.0000     0.6440     0.0010     1   393   393  402
   394      0.0000     0.0000     0.0000     0.0100     0.0000     0.0000     0.0010     1   394   394  403
   395      0.0100     0.0000     0.0000     0.0200     0.0000     0.0000     0.0010     1   395   395  404
   396      0.0200     0.0000     0.0000     0.0300     0.0000     0.0000     0.0010     1   396   396  405
   397      0.0300     0.0000     0.0000     0.0400     0.0000     0.0000     0.0010     1   397   397  406
   398      0.0400     0.0000     0.0000     0.0500     0.0000     0.0000     0.0010     1   398   398  407
   399      0.0500     0.0000     0.0000     0.0600     0.0000     0.0000     0.0010     1   399   399  408
   400      0.0600     0.0000     0.0000     0.0700     0.0000     0.0000     0.0010     1   400   400  409
   401      0.0700     0.0000     0.0000     0.0800     0.0000     0.0000     0.0010     1   401   401  410
   402      0.0800     0.0000     0.0000     0.0900     0.0000     0.0000     0.0010     1   402   402  411
   403      0.0900     0.0000     0.0000     0.1000     0.0000     0.0000     0.0010     1   403   403  412
   404      0.0000     0.0000     0.0000     0.0094     0.0034     0.0000     0.0010     1   404   404  413
   405      0.0094     0.0034     0.0000     0.0188     0.0068     0.0000     0.0010     1   405   405  414
   406      0.0188     0.0068     0.0000     0.0282     0.0103     0.0000     0.0010     1   406   406  415
   407      0.0282     0.0103     0.0000     0.0376     0.0137     0.0000     0.0010     1   407   407  416
   408      0.0376     0.0137     0.0000     0.0470     0.0171     0.0000     0.0010     1   408   408  417
   409      0.0470     0.0171     0.0000     0.0564     0.0205     0.0000     0.0010     1   409   409  418
   410      0.0564     0.0205     0.0000     0.0658     0.0239     0.0000     0.0010     1   410   410  419
   411      0.0658     0.0239     0.0000     0.0752     0.0274     0.0000     0.0010     1   411   411  420
   412      0.0752     0.0274     0.0000     0.0846     0.0308     0.0000     0.0010     1   412   412  421
   413      0.0846     0.0308     0.0000     0.0940     0.0342     0.0000     0.0010     1   413   413  422
   414      0.0000     0.0000     0.0000     0.0077     0.0064     0.0000     0.0010     1   414   414  423
   415      0.0077     0.0064     0.0000     0.0153     0.0129     0.0000     0.0010     1   415   415  424
   416      0.0153     0.0129     0.0000     0.0230     0.0193     0.0000     0.0010     1   416   416  425
   417      0.0230     0.0193     0.0000     0.0306     0.0257     0.0000     0.0010     1   417   417  426
   418      0.0306     0.0257     0.0000     0.0383     0.0321     0.0000     0.0010     1   418   418  427
   419      0.0383     0.0321     0.0000     0.0460     0.0386     0.0000     0.0010     1   419   419  428
   420      0.0460     0.0386     0.0000     0.0536     0.0450     0.0000     0.0010     1   420   420  429
   421      0.0536     0.0450     0.0000     0.0613     0.0514     0.0000     0.0010     1   421   421  430
   422      0.0613     0.0514     0.0000     0.0689     0.0579     0.0000     0.0010     1   422   422  431
   423      0.0689     0.0579     0.0000     0.0766     0.0643     0.0000     0.0010     1   423   423  432
   424      0.0000     0.0000     0.0000     0.0050     0.0087     0.0000     0.0010     1   424   424  433
   425      0.0050     0.0087     0.0000     0.0100     0.0173     0.0000     0.0010     1   425   425  434
   426      0.0100     0.0173     0.0000     0.0150     0.0260     0.0000     0.0010     1   426   426  435
   427      0.0150     0.0260     0.0000     0.0200     0.0346     0.0000     0.0010     1   427   427  436
   428      0.0200     0.0346     0.0000     0.0250     0.0433     0.0000     0.0010     1   428   428  437
   429      0.0250     0.0433     0.0000     0.0300     0.0520     0.0000     0.0010     1   429   429  438
   430      0.0300     0.0520     0.0000     0.0350     0.0606     0.0000     0.0010     1   430   430  439
   431      0.0350     0.0606     0.0000     0.0400     0.0693     0.0000     0.0010     1   431   431  440
   432      0.0400     0.0693     0.0000     0.0450     0.0779     0.0000     0.0010     1   432   432  441
   433      0.0450     0.0779     0.0000     0.0500     0.0866     0.0000     0.0010     1   433   433  442
   434      0.0000     0.0000     0.0000     0.0017     0.0098     0.0000     0.0010     1   434   434  443
   435      0.0017     0.0098     0.0000     0.0035     0.0197     0.0000     0.0010     1   435   435  444
   436      0.0035     0.0197     0.0000     0.0052     0.0295     0.0000     0.0010     1   436   436  445
   437      0.0052     0.0295     0.0000     0.0069     0.0394     0.0000     0.0010     1   437   437  446
   438      0.0069     0.0394     0.0000     0.0087     0.0492     0.0000     0.0010     1   438   438  447
   439      0.0087     0.0492     0.0000     0.0104     0.0591     0.0000     0.0010     1   439   439  448
   440      0.0104     0.0591     0.0000     0.0122     0.0689     0.0000     0.0010     1   440   440  449
   441      0.0122     0.0689     0.0000     0.0139     0.0788     0.0000     0.0010     1   441   441  450
   442      0.0139     0.0788     0.0000     0.0156     0.0886     0.0000     0.0010     1   442   442  451
   443      0.0156     0.0886     0.0000     0.0174     0.0985     0.0000     0.0010     1   443   443  452
   444      0.0000     0.0000     0.0000    -0.0017     0.0098     0.0000     0.0010     1   444   444  453
   445     -0.0017     0.0098     0.0000    -0.0035     0.0197     0.0000     0.0010     1   445   445  454
   446     -0.0035     0.0197     0.0000    -0.0052     0.0295     0.0000     0.0010     1   446   446  455
   447     -0.0052     0.0295     0.0000    -0.0069     0.0394     0.0000     0.0010     1   447   447  456
   448     -0.0069     0.0394     0.0000    -0.0087     0.0492     0.0000     0.0010     1   448   448  457
   449     -0.0087     0.0492     0.0000    -0.0104     0.0591     0.0000     0.0010     1   449   449  458
   450     -0.0104     0.0591     0.0000    -0.0122     0.0689     0.0000     0.0010     1   450   450  459
   451     -0.0122     0.0689     0.0000    -0.0139     0.0788     0.0000     0.0010     1   451   451  460
   452     -0.0139     0.0788     0.0000    -0.0156     0.0886     0.0000     0.0010     1   452   452  461
   453     -0.0156     0.0886     0.0000    -0.0174     0.0985     0.0000     0.0010     1   453   453  462
   454      0.0000     0.0000     0.0000    -0.0050     0.0087     0.0000     0.0010     1   454   454  463
   455     -0.0050     0.0087     0.0000    -0.0100     0.0173     0.0000     0.0010     1   455   455  464
   456     -0.0100     0.0173     0.0000    -0.0150     0.0260     0.0000     0.0010     1   456   456  465
   457     -0.0150     0.0260     0.0000    -0.0200     0.0346     0.0000     0.0010     1   457   457  466
   458     -0.0200     0.0346     0.0000    -0.0250     0.0433     0.0000     0.0010     1   458   458  467
   459     -0.0250     0.0433     0.0000    -0.0300     0.0520     0.0000     0.0010     1   459   459  468
   460     -0.0300     0.0520     0.0000    -0.0350     0.0606     0.0000     0.0010     1   460   460  469
   461     -0.0350     0.0606     0.0000    -0.0400     0.0693     0.0000     0.0010     1   461   461  470
   462     -0.0400     0.0693     0.0000    -0.0450     0.0779     0.0000     0.0010     1   462   462  471
   463     -0.0450     0.0779     0.0000    -0.0500     0.0866     0.0000     0.0010     1   463   463  472
   464      0.0000     0.0000     0.0000    -0.0077     0.0064     0.0000     0.0010     1   464   464  473
   465     -0.0077     0.0064     0.0000    -0.0153     0.0129     0.0000     0.0010     1   465   465  474
   466     -0.0153     0.0129     0.0000    -0.0230     0.0193     0.0000     0.0010     1   466   466  475
   467     -0.0230     0.0193     0.0000    -0.0306     0.0257     0.0000     0.0010     1   467   467  476
   468     -0.0306     0.0257     0.0000    -0.0383     0.0321     0.0000     0.0010     1   468   468  477
   469     -0.0383     0.0321     0.0000    -0.0460     0.0386     0.0000     0.0010     1   469   469  478
   470     -0.0460     0.0386     0.0000    -0.0536     0.0450     0.0000     0.0010     1   470   470  479
   471     -0.0536     0.0450     0.0000    -0.0613     0.0514     0.0000     0.0010     1   471   471  480
   472     -0.0613     0.0514     0.0000    -0.0689     0.0579     0.0000     0.0010     1   472   472  481
   473     -0.0689     0.0579     0.0000    -0.0766     0.0643     0.0000     0.0010     1   473   473  482
   474      0.0000     0.0000     0.0000    -0.0094     0.0034     0.0000     0.0010     1   474   474  483
   475     -0.0094     0.0034     0.0000    -0.0188     0.0068     0.0000     0.0010     1   475   475  484
   476     -0.0188     0.0068     0.0000    -0.0282     0.0103     0.0000     0.0010     1   476   476  485
   477     -0.0282     0.0103     0.0000    -0.0376     0.0137     0.0000     0.0010     1   477   477  486
   478     -0.0376     0.0137     0.0000    -0.0470     0.0171     0.0000     0.0010     1   478   478  487
   479     -0.0470     0.0171     0.0000    -0.0564     0.0205     0.0000     0.0010     1   479   479  488
   480     -0.0564     0.0205     0.0000    -0.0658     0.0239     0.0000     0.0010     1   480   480  489
   481     -0.0658     0.0239     0.0000    -0.0752     0.0274     0.0000     0.0010     1   481   481  490
   482     -0.0752     0.0274     0.0000    -0.0846     0.0308     0.0000     0.0010     1   482   482  491
   483     -0.0846     0.0308     0.0000    -0.0940     0.0342     0.0000     0.0010     1   483   483  492
   484      0.0000     0.0000     0.0000    -0.0100     0.0000     0.0000     0.0010     1   484   484  493
   485     -0.0100     0.0000     0.0000    -0.0200     0.0000     0.0000     0.0010     1   485   485  494
   486     -0.0200     0.0000     0.0000    -0.0300     0.0000     0.0000     0.0010     1   486   486  495
   487     -0.0300     0.0000     0.0000    -0.0400     0.0000     0.0000     0.0010     1   487   487  496
   488     -0.0400     0.0000     0.0000    -0.0500     0.0000     0.0000     0.0010     1   488   488  497
   489     -0.0500     0.0000     0.0000    -0.0600     0.0000     0.0000     0.0010     1   489   489  498
   490     -0.0600     0.0000     0.0000    -0.0700     0.0000     0.0000     0.0010     1   490   490  499
   491     -0.0700     0.0000     0.0000    -0.0800     0.0000     0.0000     0.0010     1   491   491  500
   492     -0.0800     0.0000     0.0000    -0.0900     0.0000     0.0000     0.0010     1   492   492  501
   493     -0.0900     0.0000     0.0000    -0.1000     0.0000     0.0000     0.0010     1   493   493  502
   494      0.0000     0.0000     0.0000    -0.0094    -0.0034     0.0000     0.0010     1   494   494  503
   495     -0.0094    -0.0034     0.0000    -0.0188    -0.0068     0.0000     0.0010     1   495   495  504
   496     -0.0188    -0.0068     0.0000    -0.0282    -0.0103     0.0000     0.0010     1   496   496  505
   497     -0.0282    -0.0103     0.0000    -0.0376    -0.0137     0.0000     0.0010     1   497   497  506
   498     -0.0376    -0.0137     0.0000    -0.0470    -0.0171     0.0000     0.0010     1   498   498  507
   499     -0.0470    -0.0171     0.0000    -0.0564    -0.0205     0.0000     0.0010     1   499   499  508
   500     -0.0564    -0.0205     0.0000    -0.0658    -0.0239     0.0000     0.0010     1   500   500  509
   501     -0.0658    -0.0239     0.0000    -0.0752    -0.0274     0.0000     0.0010     1   501   501  510
   502     -0.0752    -0.0274     0.0000    -0.0846    -0.0308     0.0000     0.0010     1   502   502  511
   503     -0.0846    -0.0308     0.0000    -0.0940    -0.0342     0.0000     0.0010     1   503   503  512
   504      0.0000     0.0000     0.0000    -0.0077    -0.0064     0.0000     0.0010     1   504   504  513
   505     -0.0077    -0.0064     0.0000    -0.0153    -0.0129     0.0000     0.0010     1   505   505  514
   506     -0.0153    -0.0129     0.0000    -0.0230    -0.0193     0.0000     0.0010     1   506   506  515
   507     -0.0230    -0.0193     0.0000    -0.0306    -0.0257     0.0000     0.0010     1   507   507  516
   508     -0.0306    -0.0257     0.0000    -0.0383    -0.0321     0.0000     0.0010     1   508   508  517
   509     -0.0383    -0.0321     0.0000    -0.0460    -0.0386     0.0000     0.0010     1   509   509  518
   510     -0.0460    -0.0386     0.0000    -0.0536    -0.0450     0.0000     0.0010     1   510   510  519
   511     -0.0536    -0.0450     0.0000    -0.0613    -0.0514     0.0000     0.0010     1   511   511  520
   512     -0.0613    -0.0514     0.0000    -0.0689    -0.0579     0.0000     0.0010     1   512   512  521
   513     -0.0689    -0.0579     0.0000    -0.0766    -0.0643     0.0000     0.0010     1   513   513  522
   514      0.0000     0.0000     0.0000    -0.0050    -0.0087     0.0000     0.0010     1   514   514  523
   515     -0.0050    -0.0087     0.0000    -0.0100    -0.0173     0.0000     0.0010     1   515   515  524
   516     -0.0100    -0.0173     0.0000    -0.0150    -0.0260     0.0000     0.0010     1   516   516  525
   517     -0.0150    -0.0260     0.0000    -0.0200    -0.0346     0.0000     0.0010     1   517   517  526
   518     -0.0200    -0.0346     0.0000    -0.0250    -0.0433     0.0000     0.0010     1   518   518  527
   519     -0.0250    -0.0433     0.0000    -0.0300    -0.0520     0.0000     0.0010     1   519   519  528
   520     -0.0300    -0.0520     0.0000    -0.0350    -0.0606     0.0000     0.0010     1   520   520  529
   521     -0.0350    -0.0606     0.0000    -0.0400    -0.0693     0.0000     0.0010     1   521   521  530
   522     -0.0400    -0.0693     0.0000    -0.0450    -0.0779     0.0000     0.0010     1   522   522  531
   523     -0.0450    -0.0779     0.0000    -0.0500    -0.0866     0.0000     0.0010     1   523   523  532
   524      0.0000     0.0000     0.0000    -0.0017    -0.0098     0.0000     0.0010     1   524   524  533
   525     -0.0017    -0.0098     0.0000    -0.0035    -0.0197     0.0000     0.0010     1   525   525  534
   526     -0.0035    -0.0197     0.0000    -0.0052    -0.0295     0.0000     0.0010     1   526   526  535
   527     -0.0052    -0.0295     0.0000    -0.0069    -0.0394     0.0000     0.0010     1   527   527  536
   528     -0.0069    -0.0394     0.0000    -0.0087    -0.0492     0.0000     0.0010     1   528   528  537
   529     -0.0087    -0.0492     0.0000    -0.0104    -0.0591     0.0000     0.0010     1   529   529  538
   530     -0.0104    -0.0591     0.0000    -0.0122    -0.0689     0.0000     0.0010     1   530   530  539
   531     -0.0122    -0.0689     0.0000    -0.0139    -0.0788     0.0000     0.0010     1   531   531  540
   532     -0.0139    -0.0788     0.0000    -0.0156    -0.0886     0.0000     0.0010     1   532   532  541
   533     -0.0156    -0.0886     0.0000    -0.0174    -0.0985     0.0000     0.0010     1   533   533  542
   534      0.0000     0.0000     0.0000     0.0017    -0.0098     0.0000     0.0010     1   534   534  543
   535      0.0017    -0.0098     0.0000     0.0035    -0.0197     0.0000     0.0010     1   535   535  544
   536      0.0035    -0.0197     0.0000     0.0052    -0.0295     0.0000     0.0010     1   536   536  545
   537      0.0052    -0.0295     0.0000     0.0069    -0.0394     0.0000     0.0010     1   537   537  546
   538      0.0069    -0.0394     0.0000     0.0087    -0.0492     0.0000     0.0010     1   538   538  547
   539      0.0087    -0.0492     0.0000     0.0104    -0.0591     0.0000     0.0010     1   539   539  548
   540      0.0104    -0.0591     0.0000     0.0122    -0.0689     0.0000     0.0010     1   540   540  549
   541      0.0122    -0.0689     0.0000     0.0139    -0.0788     0.0000     0.0010     1   541   541  550
   542      0.0139    -0.0788     0.0000     0.0156    -0.0886     0.0000     0.0010     1   542   542  551
   543      0.0156    -0.0886     0.0000     0.0174    -0.0985     0.0000     0.0010     1   543   543  552
   544      0.0000     0.0000     0.0000     0.0050    -0.0087     0.0000     0.0010     1   544   544  553
   545      0.0050    -0.0087     0.0000     0.0100    -0.0173     0.0000     0.0010     1   545   545  554
   546      0.0100    -0.0173     0.0000     0.0150    -0.0260     0.0000     0.0010     1   546   546  555
   547      0.0150    -0.0260     0.0000     0.0200    -0.0346     0.0000     0.0010     1   547   547  556
   548      0.0200    -0.0346     0.0000     0.0250    -0.0433     0.0000     0.0010     1   548   548  557
   549      0.0250    -0.0433     0.0000     0.0300    -0.0520     0.0000     0.0010     1   549   549  558
   550      0.0300    -0.0520     0.0000     0.0350    -0.0606     0.0000     0.0010     1   550   550  559
   551      0.0350    -0.0606     0.0000     0.0400    -0.0693     0.0000     0.0010     1   551   551  560
   552      0.0400    -0.0693     0.0000     0.0450    -0.0779     0.0000     0.0010     1   552   552  561
   553      0.0450    -0.0779     0.0000     0.0500    -0.0866     0.0000     0.0010     1   553   553  562
   554      0.0000     0.0000     0.0000     0.0077    -0.0064     0.0000     0.0010     1   554   554  563
   555      0.0077    -0.0064     0.0000     0.0153    -0.0129     0.0000     0.0010     1   555   555  564
   556      0.0153    -0.0129     0.0000     0.0230    -0.0193     0.0000     0.0010     1   556   556  565
   557      0.0230    -0.0193     0.0000     0.0306    -0.0257     0.0000     0.0010     1   557   557  566
   558      0.0306    -0.0257     0.0000     0.0383    -0.0321     0.0000     0.0010     1   558   558  567
   559      0.0383    -0.0321     0.0000     0.0460    -0.0386     0.0000     0.0010     1   559   559  568
   560      0.0460    -0.0386     0.0000     0.0536    -0.0450     0.0000     0.0010     1   560   560  569
   561      0.0536    -0.0450     0.0000     0.0613    -0.0514     0.0000     0.0010     1   561   561  570
   562      0.0613    -0.0514     0.0000     0.0689    -0.0579     0.0000     0.0010     1   562   562  571
   563      0.0689    -0.0579     0.0000     0.0766    -0.0643     0.0000     0.0010     1   563   563  572
   564      0.0000     0.0000     0.0000     0.0094    -0.0034     0.0000     0.0010     1   564   564  573
   565      0.0094    -0.0034     0.0000     0.0188    -0.0068     0.0000     0.0010     1   565   565  574
   566      0.0188    -0.0068     0.0000     0.0282    -0.0103     0.0000     0.0010     1   566   566  575
   567      0.0282    -0.0103     0.0000     0.0376    -0.0137     0.0000     0.0010     1   567   567  576
   568      0.0376    -0.0137     0.0000     0.0470    -0.0171     0.0000     0.0010     1   568   568  577
   569      0.0470    -0.0171     0.0000     0.0564    -0.0205     0.0000     0.0010     1   569   569  578
   570      0.0564    -0.0205     0.0000     0.0658    -0.0239     0.0000     0.0010     1   570   570  579
   571      0.0658    -0.0239     0.0000     0.0752    -0.0274     0.0000     0.0010     1   571   571  580
   572      0.0752    -0.0274     0.0000     0.0846    -0.0308     0.0000     0.0010     1   572   572  581
   573      0.0846    -0.0308     0.0000     0.0940    -0.0342     0.0000     0.0010     1   573   573  582
   574      0.0100     0.0000     0.0000     0.0094     0.0034     0.0000     0.0010     1   574   574  583
   575      0.0094     0.0034     0.0000     0.0077     0.0064     0.0000     0.0010     1   575   575  584
   576      0.0077     0.0064     0.0000     0.0050     0.0087     0.0000     0.0010     1   576   576  585
   577      0.0050     0.0087     0.0000     0.0017     0.0098     0.0000     0.0010     1   577   577  586
   578      0.0017     0.0098     0.0000    -0.0017     0.0098     0.0000     0.0010     1   578   578  587
   579     -0.0017     0.0098     0.0000    -0.0050     0.0087     0.0000     0.0010     1   579   579  588
   580     -0.0050     0.0087     0.0000    -0.0077     0.0064     0.0000     0.0010     1   580   580  589
   581     -0.0077     0.0064     0.0000    -0.0094     0.0034     0.0000     0.0010     1   581   581  590
   582     -0.0094     0.0034     0.0000    -0.0100     0.0000     0.0000     0.0010     1   582   582  591
   583     -0.0100     0.0000     0.0000    -0.0094    -0.0034     0.0000     0.0010     1   583   583  592
   584     -0.0094    -0.0034     0.0000    -0.0077    -0.0064     0.0000     0.0010     1   584   584  593
   585     -0.0077    -0.0064     0.0000    -0.0050    -0.0087     0.0000     0.0010     1   585   585  594
   586     -0.0050    -0.0087     0.0000    -0.0017    -0.0098     0.0000     0.0010     1   586   586  595
   587     -0.0017    -0.0098     0.0000     0.0017    -0.0098     0.0000     0.0010     1   587   587  596
   588      0.0017    -0.0098     0.0000     0.0050    -0.0087     0.0000     0.0010     1   588   588  597
   589      0.0050    -0.0087     0.0000     0.0077    -0.0064     0.0000     0.0010     1   589   589  598
   590      0.0077    -0.0064     0.0000     0.0094    -0.0034     0.0000     0.0010     1   590   590  599
   591      0.0094    -0.0034     0.0000     0.0100     0.0000     0.0000     0.0010     1   591   591  600
   592      0.0200     0.0000     0.0000     0.0188     0.0068     0.0000     0.0010     1   592   592  601
   593      0.0188     0.0068     0.0000     0.0153     0.0129     0.0000     0.0010     1   593   593  602
   594      0.0153     0.0129     0.0000     0.0100     0.0173     0.0000     0.0010     1   594   594  603
   595      0.0100     0.0173     0.0000     0.0035     0.0197     0.0000     0.0010     1   595   595  604
   596      0.0035     0.0197     0.0000    -0.0035     0.0197     0.0000     0.0010     1   596   596  605
   597     -0.0035     0.0197     0.0000    -0.0100     0.0173     0.0000     0.0010     1   597   597  606
   598     -0.0100     0.0173     0.0000    -0.0153     0.0129     0.0000     0.0010     1   598   598  607
   599     -0.0153     0.0129     0.0000    -0.0188     0.0068     0.0000     0.0010     1   599   599  608
   600     -0.0188     0.0068     0.0000    -0.0200     0.0000     0.0000     0.0010     1   600   600  609
   601     -0.0200     0.0000     0.0000    -0.0188    -0.0068     0.0000     0.0010     1   601   601  610
   602     -0.0188    -0.0068     0.0000    -0.0153    -0.0129     0.0000     0.0010     1   602   602  611
   603     -0.0153    -0.0129     0.0000    -0.0100    -0.0173     0.0000     0.0010     1   603   603  612
   604     -0.0100    -0.0173     0.0000    -0.0035    -0.0197     0.0000     0.0010     1   604   604  613
   605     -0.0035    -0.0197     0.0000     0.0035    -0.0197     0.0000     0.0010     1   605   605  614
   606      0.0035    -0.0197     0.0000     0.0100    -0.0173     0.0000     0.0010     1   606   606  615
   607      0.0100    -0.0173     0.0000     0.0153    -0.0129     0.0000     0.0010     1   607   607  616
   608      0.0153    -0.0129     0.0000     0.0188    -0.0068     0.0000     0.0010     1   608   608  617
   609      0.0188    -0.0068     0.0000     0.0200     0.0000     0.0000     0.0010     1   609   609  618
   610      0.0300     0.0000     0.0000     0.0282     0.0103     0.0000     0.0010     1   610   610  619
   611      0.0282     0.0103     0.0000     0.0230     0.0193     0.0000     0.0010     1   611   611  620
   612      0.0230     0.0193     0.0000     0.0150     0.0260     0.0000     0.0010     1   612   612  621
   613      0.0150     0.0260     0.0000     0.0052     0.0295     0.0000     0.0010     1   613   613  622
   614      0.0052     0.0295     0.0000    -0.0052     0.0295     0.0000     0.0010     1   614   614  623
   615     -0.0052     0.0295     0.0000    -0.0150     0.0260     0.0000     0.0010     1   615   615  624
   616     -0.0150     0.0260     0.0000    -0.0230     0.0193     0.0000     0.0010     1   616   616  625
   617     -0.0230     0.0193     0.0000    -0.0282     0.0103     0.0000     0.0010     1   617   617  626
   618     -0.0282     0.0103     0.0000    -0.0300     0.0000     0.0000     0.0010     1   618   618  627
   619     -0.0300     0.0000     0.0000    -0.0282    -0.0103     0.0000     0.0010     1   619   619  628
   620     -0.0282    -0.0103     0.0000    -0.0230    -0.0193     0.0000     0.0010     1   620   620  629
   621     -0.0230    -0.0193     0.0000    -0.0150    -0.0260     0.0000     0.0010     1   621   621  630
   622     -0.0150    -0.0260     0.0000    -0.0052    -0.0295     0.0000     0.0010     1   622   622  631
   623     -0.0052    -0.0295     0.0000     0.0052    -0.0295     0.0000     0.0010     1   623   623  632
   624      0.0052    -0.0295     0.0000     0.0150    -0.0260     0.0000     0.0010     1   624   624  633
   625      0.0150    -0.0260     0.0000     0.0230    -0.0193     0.0000     0.0010     1   625   625  634
   626      0.0230    -0.0193     0.0000     0.0282    -0.0103     0.0000     0.0010     1   626   626  635
   627      0.0282    -0.0103     0.0000     0.0300     0.0000     0.0000     0.0010     1   627   627  636
   628      0.0400     0.0000     0.0000     0.0376     0.0137     0.0000     0.0010     1   628   628  637
   629      0.0376     0.0137     0.0000     0.0306     0.0257     0.0000     0.0010     1   629   629  638
   630      0.0306     0.0257     0.0000     0.0200     0.0346     0.0000     0.0010     1   630   630  639
   631      0.0200     0.0346     0.0000     0.0069     0.0394     0.0000     0.0010     1   631   631  640
   632      0.0069     0.0394     0.0000    -0.0069     0.0394     0.0000     0.0010     1   632   632  641
   633     -0.0069     0.0394     0.0000    -0.0200     0.0346     0.0000     0.0010     1   633   633  642
   634     -0.0200     0.0346     0.0000    -0.0306     0.0257     0.0000     0.0010     1   634   634  643
   635     -0.0306     0.0257     0.0000    -0.0376     0.0137     0.0000     0.0010     1   635   635  644
   636     -0.0376     0.0137     0.0000    -0.0400     0.0000     0.0000     0.0010     1   636   636  645
   637     -0.0400     0.0000     0.0000    -0.0376    -0.0137     0.0000     0.0010     1   637   637  646
   638     -0.0376    -0.0137     0.0000    -0.0306    -0.0257     0.0000     0.0010     1   638   638  647
   639     -0.0306    -0.0257     0.0000    -0.0200    -0.0346     0.0000     0.0010     1   639   639  648
   640     -0.0200    -0.0346     0.0000    -0.0069    -0.0394     0.0000     0.0010     1   640   640  649
   641     -0.0069    -0.0394     0.0000     0.0069    -0.0394     0.0000     0.0010     1   641   641  650
   642      0.0069    -0.0394     0.0000     0.0200    -0.0346     0.0000     0.0010     1   642   642  651
   643      0.0200    -0.0346     0.0000     0.0306    -0.0257     0.0000     0.0010     1   643   643  652
   644      0.0306    -0.0257     0.0000     0.0376    -0.0137     0.0000     0.0010     1   644   644  653
   645      0.0376    -0.0137     0.0000     0.0400     0.0000     0.0000     0.0010     1   645   645  654
   646      0.0500     0.0000     0.0000     0.0470     0.0171     0.0000     0.0010     1   646   646  655
   647      0.0470     0.0171     0.0000     0.0383     0.0321     0.0000     0.0010     1   647   647  656
   648      0.0383     0.0321     0.0000     0.0250     0.0433     0.0000     0.0010     1   648   648  657
   649      0.0250     0.0433     0.0000     0.0087     0.0492     0.0000     0.0010     1   649   649  658
   650      0.0087     0.0492     0.0000    -0.0087     0.0492     0.0000     0.0010     1   650   650  659
   651     -0.0087     0.0492     0.0000    -0.0250     0.0433     0.0000     0.0010     1   651   651  660
   652     -0.0250     0.0433     0.0000    -0.0383     0.0321     0.0000     0.0010     1   652   652  661
   653     -0.0383     0.0321     0.0000    -0.0470     0.0171     0.0000     0.0010     1   653   653  662
   654     -0.0470     0.0171     0.0000    -0.0500     0.0000     0.0000     0.0010     1   654   654  663
   655     -0.0500     0.0000     0.0000    -0.0470    -0.0171     0.0000     0.0010     1   655   655  664
   656     -0.0470    -0.0171     0.0000    -0.0383    -0.0321     0.0000     0.0010     1   656   656  665
   657     -0.0383    -0.0321     0.0000    -0.0250    -0.0433     0.0000     0.0010     1   657   657  666
   658     -0.0250    -0.0433     0.0000    -0.0087    -0.0492     0.0000     0.0010     1   658   658  667
   659     -0.0087    -0.0492     0.0000     0.0087    -0.0492     0.0000     0.0010     1   659   659  668
   660      0.0087    -0.0492     0.0000     0.0250    -0.0433     0.0000     0.0010     1   660   660  669
   661      0.0250    -0.0433     0.0000     0.0383    -0.0321     0.0000     0.0010     1   661   661  670
   662      0.0383    -0.0321     0.0000     0.0470    -0.0171     0.0000     0.0010     1   662   662  671
   663      0.0470    -0.0171     0.0000     0.0500     0.0000     0.0000     0.0010     1   663   663  672
   664      0.0600     0.0000     0.0000     0.0564     0.0205     0.0000     0.0010     1   664   664  673
   665      0.0564     0.0205     0.0000     0.0460     0.0386     0.0000     0.0010     1   665   665  674
   666      0.0460     0.0386     0.0000     0.0300     0.0520     0.0000     0.0010     1   666   666  675
   667      0.0300     0.0520     0.0000     0.0104     0.0591     0.0000     0.0010     1   667   667  676
   668      0.0104     0.0591     0.0000    -0.0104     0.0591     0.0000     0.0010     1   668   668  677
   669     -0.0104     0.0591     0.0000    -0.0300     0.0520     0.0000     0.0010     1   669   669  678
   670     -0.0300     0.0520     0.0000    -0.0460     0.0386     0.0000     0.0010     1   670   670  679
   671     -0.0460     0.0386     0.0000    -0.0564     0.0205     0.0000     0.0010     1   671   671  680
   672     -0.0564     0.0205     0.0000    -0.0600     0.0000     0.0000     0.0010     1   672   672  681
   673     -0.0600     0.0000     0.0000    -0.0564    -0.0205     0.0000     0.0010     1   673   673  682
   674     -0.0564    -0.0205     0.0000    -0.0460    -0.0386     0.0000     0.0010     1   674   674  683
   675     -0.0460    -0.0386     0.0000    -0.0300    -0.0520     0.0000     0.0010     1   675   675  684
   676     -0.0300    -0.0520     0.0000    -0.0104    -0.0591     0.0000     0.0010     1   676   676  685
   677     -0.0104    -0.0591     0.0000     0.0104    -0.0591     0.0000     0.0010     1   677   677  686
   678      0.0104    -0.0591     0.0000     0.0300    -0.0520     0.0000     0.0010     1   678   678  687
   679      0.0300    -0.0520     0.0000     0.0460    -0.0386     0.0000     0.0010     1   679   679  688
   680      0.0460    -0.0386     0.0000     0.0564    -0.0205     0.0000     0.0010     1   680   680  689
   681      0.0564    -0.0205     0.0000     0.0600     0.0000     0.0000     0.0010     1   681   681  690
   682      0.0700     0.0000     0.0000     0.0658     0.0239     0.0000     0.0010     1   682   682  691
   683      0.0658     0.0239     0.0000     0.0536     0.0450     0.0000     0.0010     1   683   683  692
   684      0.0536     0.0450     0.0000     0.0350     0.0606     0.0000     0.0010     1   684   684  693
   685      0.0350     0.0606     0.0000     0.0122     0.0689     0.0000     0.0010     1   685   685  694
   686      0.0122     0.0689     0.0000    -0.0122     0.0689     0.0000     0.0010     1   686   686  695
   687     -0.0122     0.0689     0.0000    -0.0350     0.0606     0.0000     0.0010     1   687   687  696
   688     -0.0350     0.0606     0.0000    -0.0536     0.0450     0.0000     0.0010     1   688   688  697
   689     -0.0536     0.0450     0.0000    -0.0658     0.0239     0.0000     0.0010     1   689   689  698
   690     -0.0658     0.0239     0.0000    -0.0700     0.0000     0.0000     0.0010     1   690   690  699
   691     -0.0700     0.0000     0.0000    -0.0658    -0.0239     0.0000     0.0010     1   691   691  700
   692     -0.0658    -0.0239     0.0000    -0.0536    -0.0450     0.0000     0.0010     1   692   692  701
   693     -0.0536    -0.0450     0.0000    -0.0350    -0.0606     0.0000     0.0010     1   693   693  702
   694     -0.0350    -0.0606     0.0000    -0.0122    -0.0689     0.0000     0.0010     1   694   694  703
   695     -0.0122    -0.0689     0.0000     0.0122    -0.0689     0.0000     0.0010     1   695   695  704
   696      0.0122    -0.0689     0.0000     0.0350    -0.0606     0.0000     0.0010     1   696   696  705
   697      0.0350    -0.0606     0.0000     0.0536    -0.0450     0.0000     0.0010     1   697   697  706
   698      0.0536    -0.0450     0.0000     0.0658    -0.0239     0.0000     0.0010     1   698   698  707
   699      0.0658    -0.0239     0.0000     0.0700     0.0000     0.0000     0.0010     1   699   699  708
   700      0.0800     0.0000     0.0000     0.0752     0.0274     0.0000     0.0010     1   700   700  709
   701      0.0752     0.0274     0.0000     0.0613     0.0514     0.0000     0.0010     1   701   701  710
   702      0.0613     0.0514     0.0000     0.0400     0.0693     0.0000     0.0010     1   702   702  711
   703      0.0400     0.0693     0.0000     0.0139     0.0788     0.0000     0.0010     1   703   703  712
   704      0.0139     0.0788     0.0000    -0.0139     0.0788     0.0000     0.0010     1   704   704  713
   705     -0.0139     0.0788     0.0000    -0.0400     0.0693     0.0000     0.0010     1   705   705  714
   706     -0.0400     0.0693     0.0000    -0.0613     0.0514     0.0000     0.0010     1   706   706  715
   707     -0.0613     0.0514     0.0000    -0.0752     0.0274     0.0000     0.0010     1   707   707  716
   708     -0.0752     0.0274     0.0000    -0.0800     0.0000     0.0000     0.0010     1   708   708  717
   709     -0.0800     0.0000     0.0000    -0.0752    -0.0274     0.0000     0.0010     1   709   709  718
   710     -0.0752    -0.0274     0.0000    -0.0613    -0.0514     0.0000     0.0010     1   710   710  719
   711     -0.0613    -0.0514     0.0000    -0.0400    -0.0693     0.0000     0.0010     1   711   711  720
   712     -0.0400    -0.0693     0.0000    -0.0139    -0.0788     0.0000     0.0010     1   712   712  721
   713     -0.0139    -0.0788     0.0000     0.0139    -0.0788     0.0000     0.0010     1   713   713  722
   714      0.0139    -0.0788     0.0000     0.0400    -0.0693     0.0000     0.0010     1   714   714  723
   715      0.0400    -0.0693     0.0000     0.0613    -0.0514     0.0000     0.0010     1   715   715  724
   716      0.0613    -0.0514     0.0000     0.0752    -0.0274     0.0000     0.0010     1   716   716  725
   717      0.0752    -0.0274     0.0000     0.0800     0.0000     0.0000     0.0010     1   717   717  726
   718      0.0900     0.0000     0.0000     0.0846     0.0308     0.0000     0.0010     1   718   718  727
   719      0.0846     0.0308     0.0000     0.0689     0.0579     0.0000     0.0010     1   719   719  728
   720      0.0689     0.0579     0.0000     0.0450     0.0779     0.0000     0.0010     1   720   720  729
   721      0.0450     0.0779     0.0000     0.0156     0.0886     0.0000     0.0010     1   721   721  730
   722      0.0156     0.0886     0.0000    -0.0156     0.0886     0.0000     0.0010     1   722   722  731
   723     -0.0156     0.0886     0.0000    -0.0450     0.0779     0.0000     0.0010     1   723   723  732
   724     -0.0450     0.0779     0.0000    -0.0689     0.0579     0.0000     0.0010     1   724   724  733
[...]
   555  564    0.0728   -0.0611    0.0000   0.06338 -1.9281E-05  5.6512E-06  2.0092E-05  163.664
   556  565    0.1214   -0.1018    0.0000   0.06337 -2.2796E-05  1.4541E-05  2.7039E-05  147.467
   557  566    0.1699   -0.1426    0.0000   0.06338 -2.0068E-05  2.5975E-05  3.2824E-05  127.689
   558  567    0.2185   -0.1833    0.0000   0.06337 -1.3328E-05  3.8680E-05  4.0912E-05  109.013
   559  568    0.2670   -0.2241    0.0000   0.06338 -4.6164E-06  5.1090E-05  5.1298E-05   95.163
   560  569    0.3156   -0.2648    0.0000   0.06337  4.3697E-06  6.0777E-05  6.0934E-05   85.888
   561  570    0.3641   -0.3055    0.0000   0.06338  1.1843E-05  6.4587E-05  6.5664E-05   79.609
   562  571    0.4127   -0.3463    0.0000   0.06337  1.5719E-05  5.9057E-05  6.1113E-05   75.096
   563  572    0.4612   -0.3870    0.0000   0.06337  1.3530E-05  4.0627E-05  4.2821E-05   71.580
   564  573    0.0298   -0.0108    0.0000   0.06338 -6.8798E-06  4.2103E-06  8.0659E-06  148.534
   565  574    0.0893   -0.0325    0.0000   0.06338 -1.5391E-05  1.0926E-05  1.8875E-05  144.630
   566  575    0.1489   -0.0542    0.0000   0.06338 -1.5919E-05  2.0240E-05  2.5751E-05  128.186
   567  576    0.2084   -0.0759    0.0000   0.06338 -1.0027E-05  3.0406E-05  3.2016E-05  108.250
   568  577    0.2680   -0.0975    0.0000   0.06338  7.7367E-08  4.0768E-05  4.0769E-05   89.891
   569  578    0.3275   -0.1192    0.0000   0.06338  1.2085E-05  5.0305E-05  5.1736E-05   76.492
   570  579    0.3871   -0.1409    0.0000   0.06337  2.3610E-05  5.7118E-05  6.1805E-05   67.542
   571  580    0.4466   -0.1626    0.0000   0.06338  3.1913E-05  5.8673E-05  6.6791E-05   61.458
   572  581    0.5062   -0.1842    0.0000   0.06338  3.3860E-05  5.2243E-05  6.2256E-05   57.052
   573  582    0.5658   -0.2059    0.0000   0.06338  2.5913E-05  3.5139E-05  4.3660E-05   53.593
   574  583    0.0615    0.0108    0.0000   0.02201  2.7986E-05  2.3658E-05  3.6646E-05   40.209
   575  584    0.0540    0.0312    0.0000   0.02201  3.3121E-05  1.4497E-05  3.6155E-05   23.640
   576  585    0.0401    0.0478    0.0000   0.02201  3.4557E-05  5.1582E-06  3.4940E-05    8.490
   577  586    0.0213    0.0586    0.0000   0.02201  3.2398E-05 -4.1263E-06  3.2660E-05   -7.258
   578  587    0.0000    0.0624    0.0000   0.02200  2.6545E-05 -1.4307E-05  3.0155E-05  -28.324
   579  588   -0.0213    0.0586    0.0000   0.02201  1.6460E-05 -2.6906E-05  3.1541E-05  -58.543
   580  589   -0.0401    0.0478    0.0000   0.02201  2.3544E-06 -3.8779E-05  3.8850E-05  -86.526
   581  590   -0.0540    0.0312    0.0000   0.02201 -1.4905E-05 -4.9891E-05  5.2070E-05 -106.634
   582  591   -0.0615    0.0108    0.0000   0.02201 -3.2254E-05 -5.0578E-05  5.9987E-05 -122.526
   583  592   -0.0615   -0.0108    0.0000   0.02201 -4.6432E-05 -4.2910E-05  6.3223E-05 -137.258
   584  593   -0.0540   -0.0312    0.0000   0.02201 -5.4497E-05 -2.6364E-05  6.0539E-05 -154.184
   585  594   -0.0401   -0.0478    0.0000   0.02201 -5.5065E-05 -6.2692E-06  5.5421E-05 -173.505
   586  595   -0.0213   -0.0586    0.0000   0.02201 -4.8755E-05  1.2330E-05  5.0289E-05  165.808
   587  596    0.0000   -0.0624    0.0000   0.02200 -3.7277E-05  2.6674E-05  4.5838E-05  144.414
   588  597    0.0213   -0.0586    0.0000   0.02201 -2.2757E-05  3.5558E-05  4.2217E-05  122.619
   589  598    0.0401   -0.0478    0.0000   0.02201 -7.3421E-06  3.8855E-05  3.9542E-05  100.701
   590  599    0.0540   -0.0312    0.0000   0.02201  7.1092E-06  3.7178E-05  3.7851E-05   79.174
   591  600    0.0615   -0.0108    0.0000   0.02201  1.9185E-05  3.1660E-05  3.7019E-05   58.786
   592  601    0.1229    0.0217    0.0000   0.04402  2.3148E-05  1.5397E-05  2.7801E-05   33.630
   593  602    0.1081    0.0624    0.0000   0.04402  2.5593E-05  6.3500E-06  2.6369E-05   13.934
   594  603    0.0802    0.0956    0.0000   0.04402  2.4756E-05 -1.9795E-06  2.4835E-05   -4.572
   595  604    0.0427    0.1173    0.0000   0.04402  2.1205E-05 -8.7053E-06  2.2922E-05  -22.320
   596  605    0.0000    0.1248    0.0000   0.04402  1.5700E-05 -1.3091E-05  2.0442E-05  -39.823
   597  606   -0.0427    0.1173    0.0000   0.04402  8.7739E-06 -1.6168E-05  1.8395E-05  -61.512
   598  607   -0.0802    0.0956    0.0000   0.04402 -2.1198E-06 -3.0631E-05  3.0704E-05  -93.959
   599  608   -0.1081    0.0624    0.0000   0.04402 -2.1839E-05 -6.1763E-05  6.5510E-05 -109.473
   600  609   -0.1229    0.0217    0.0000   0.04402 -4.3163E-05 -6.6637E-05  7.9395E-05 -122.933
   601  610   -0.1229   -0.0217    0.0000   0.04402 -5.5916E-05 -4.4021E-05  7.1165E-05 -141.788
   602  611   -0.1081   -0.0624    0.0000   0.04402 -5.9472E-05 -1.9745E-05  6.2664E-05 -161.634
   603  612   -0.0802   -0.0956    0.0000   0.04402 -5.5670E-05  9.5548E-07  5.5678E-05  179.017
   604  613   -0.0427   -0.1173    0.0000   0.04402 -4.6322E-05  1.7323E-05  4.9455E-05  159.495
   605  614    0.0000   -0.1248    0.0000   0.04402 -3.3387E-05  2.8529E-05  4.3916E-05  139.486
   606  615    0.0427   -0.1173    0.0000   0.04402 -1.8894E-05  3.4239E-05  3.9106E-05  118.891
   607  616    0.0802   -0.0956    0.0000   0.04402 -4.7000E-06  3.4758E-05  3.5074E-05   97.701
   608  617    0.1081   -0.0624    0.0000   0.04402  7.6658E-06  3.0951E-05  3.1887E-05   76.089
   609  618    0.1229   -0.0217    0.0000   0.04402  1.7138E-05  2.4040E-05  2.9523E-05   54.515
   610  619    0.1844    0.0325    0.0000   0.06603  1.9168E-05  9.8721E-06  2.1561E-05   27.250
   611  620    0.1622    0.0936    0.0000   0.06603  2.0156E-05  2.1195E-06  2.0267E-05    6.003
   612  621    0.1204    0.1434    0.0000   0.06603  1.8422E-05 -4.8174E-06  1.9041E-05  -14.655
   613  622    0.0640    0.1759    0.0000   0.06603  1.4421E-05 -1.0562E-05  1.7875E-05  -36.221
   614  623    0.0000    0.1872    0.0000   0.06602  8.5076E-06 -1.5664E-05  1.7825E-05  -61.492
   615  624   -0.0640    0.1759    0.0000   0.06603  5.7776E-07 -2.2043E-05  2.2051E-05  -88.499
   616  625   -0.1204    0.1434    0.0000   0.06603 -9.8938E-06 -3.1368E-05  3.2891E-05 -107.506
   617  626   -0.1622    0.0936    0.0000   0.06603 -2.1588E-05 -3.4875E-05  4.1016E-05 -121.758
   618  627   -0.1844    0.0325    0.0000   0.06603 -3.3289E-05 -3.5614E-05  4.8749E-05 -133.068
   619  628   -0.1844   -0.0325    0.0000   0.06603 -4.1999E-05 -2.6571E-05  4.9698E-05 -147.680
   620  629   -0.1622   -0.0936    0.0000   0.06603 -4.5096E-05 -1.1680E-05  4.6585E-05 -165.479
   621  630   -0.1204   -0.1434    0.0000   0.06603 -4.2392E-05  3.5721E-06  4.2542E-05  175.184
   622  631   -0.0640   -0.1759    0.0000   0.06603 -3.4988E-05  1.6136E-05  3.8530E-05  155.242
   623  632    0.0000   -0.1872    0.0000   0.06602 -2.4541E-05  2.4585E-05  3.4737E-05  134.948
   624  633    0.0640   -0.1759    0.0000   0.06603 -1.2829E-05  2.8459E-05  3.1217E-05  114.266
   625  634    0.1204   -0.1434    0.0000   0.06603 -1.5035E-06  2.8009E-05  2.8049E-05   93.073
   626  635    0.1622   -0.0936    0.0000   0.06603  8.1200E-06  2.4009E-05  2.5345E-05   71.314
   627  636    0.1844   -0.0325    0.0000   0.06603  1.5153E-05  1.7554E-05  2.3190E-05   49.198
   628  637    0.2459    0.0434    0.0000   0.08804  1.5281E-05  4.2965E-06  1.5874E-05   15.704
   629  638    0.2162    0.1248    0.0000   0.08804  1.4959E-05 -1.6624E-06  1.5051E-05   -6.341
   630  639    0.1605    0.1912    0.0000   0.08804  1.2656E-05 -6.6776E-06  1.4309E-05  -27.818
   631  640    0.0854    0.2346    0.0000   0.08804  8.8060E-06 -1.0406E-05  1.3632E-05  -49.760
   632  641    0.0000    0.2496    0.0000   0.08804  3.8118E-06 -1.3020E-05  1.3567E-05  -73.682
   633  642   -0.0854    0.2346    0.0000   0.08804 -2.0868E-06 -1.5175E-05  1.5318E-05  -97.830
   634  643   -0.1605    0.1912    0.0000   0.08804 -8.6836E-06 -1.6738E-05  1.8856E-05 -117.420
   635  644   -0.2162    0.1248    0.0000   0.08804 -1.5951E-05 -1.8981E-05  2.4794E-05 -130.043
   636  645   -0.2459    0.0434    0.0000   0.08804 -2.2622E-05 -1.6553E-05  2.8032E-05 -143.806
   637  646   -0.2459   -0.0434    0.0000   0.08804 -2.7178E-05 -1.0638E-05  2.9186E-05 -158.623
   638  647   -0.2162   -0.1248    0.0000   0.08804 -2.8473E-05 -1.9435E-06  2.8540E-05 -176.095
   639  648   -0.1605   -0.1912    0.0000   0.08804 -2.6162E-05  7.1590E-06  2.7124E-05  164.696
   640  649   -0.0854   -0.2346    0.0000   0.08804 -2.0770E-05  1.4708E-05  2.5450E-05  144.695
   641  650    0.0000   -0.2496    0.0000   0.08804 -1.3342E-05  1.9550E-05  2.3669E-05  124.311
   642  651    0.0854   -0.2346    0.0000   0.08804 -5.1370E-06  2.1228E-05  2.1841E-05  103.604
   643  652    0.1605   -0.1912    0.0000   0.08804  2.6398E-06  1.9859E-05  2.0034E-05   82.428
   644  653    0.2162   -0.1248    0.0000   0.08804  9.0078E-06  1.5998E-05  1.8359E-05   60.617
   645  654    0.2459   -0.0434    0.0000   0.08804  1.3315E-05  1.0490E-05  1.6951E-05   38.232
   646  655    0.3073    0.0542    0.0000   0.11005  1.1694E-05 -5.3080E-07  1.1706E-05   -2.599
   647  656    0.2703    0.1560    0.0000   0.11005  1.0235E-05 -4.8000E-06  1.1305E-05  -25.126
   648  657    0.2006    0.2391    0.0000   0.11005  7.4931E-06 -8.0022E-06  1.0963E-05  -46.881
   649  658    0.1067    0.2932    0.0000   0.11005  3.8748E-06 -9.8886E-06  1.0621E-05  -68.603
   650  659    0.0000    0.3121    0.0000   0.11005 -2.3280E-07 -1.0537E-05  1.0539E-05  -91.266
   651  660   -0.1067    0.2932    0.0000   0.11005 -4.5231E-06 -1.0280E-05  1.1231E-05 -113.750
   652  661   -0.2006    0.2391    0.0000   0.11005 -8.7672E-06 -9.4882E-06  1.2919E-05 -132.738
   653  662   -0.2703    0.1560    0.0000   0.11005 -1.2882E-05 -8.8903E-06  1.5652E-05 -145.389
   654  663   -0.3073    0.0542    0.0000   0.11005 -1.6214E-05 -6.1194E-06  1.7330E-05 -159.323
   655  664   -0.3073   -0.0542    0.0000   0.11005 -1.7875E-05 -1.4987E-06  1.7938E-05 -175.207
   656  665   -0.2703   -0.1560    0.0000   0.11005 -1.7353E-05  4.0314E-06  1.7815E-05  166.921
   657  666   -0.2006   -0.2391    0.0000   0.11005 -1.4606E-05  9.3128E-06  1.7322E-05  147.478
   658  667   -0.1067   -0.2932    0.0000   0.11005 -1.0085E-05  1.3267E-05  1.6665E-05  127.241
   659  668    0.0000   -0.3121    0.0000   0.11005 -4.5701E-06  1.5230E-05  1.5901E-05  106.703
   660  669    0.1067   -0.2932    0.0000   0.11005  1.0581E-06  1.4992E-05  1.5029E-05   85.963
   661  670    0.2006   -0.2391    0.0000   0.11005  5.9886E-06  1.2740E-05  1.4078E-05   64.824
   662  671    0.2703   -0.1560    0.0000   0.11005  9.6037E-06  8.9509E-06  1.3128E-05   42.985
   663  672    0.3073   -0.0542    0.0000   0.11005  1.1537E-05  4.2818E-06  1.2306E-05   20.362
   664  673    0.3688    0.0650    0.0000   0.13206  8.6239E-06 -4.2021E-06  9.5932E-06  -25.978
   665  674    0.3243    0.1872    0.0000   0.13206  6.2705E-06 -7.0889E-06  9.4642E-06  -48.505
   666  675    0.2407    0.2869    0.0000   0.13207  3.2015E-06 -8.8068E-06  9.3706E-06  -70.023
   667  676    0.1281    0.3519    0.0000   0.13206 -1.9333E-07 -9.2289E-06  9.2309E-06  -91.200
   668  677    0.0000    0.3745    0.0000   0.13206 -3.5730E-06 -8.4820E-06  9.2038E-06 -112.843
   669  678   -0.1281    0.3519    0.0000   0.13206 -6.6865E-06 -6.9029E-06  9.6104E-06 -134.088
   670  679   -0.2407    0.2869    0.0000   0.13207 -9.3595E-06 -4.9389E-06  1.0583E-05 -152.180
   671  680   -0.3243    0.1872    0.0000   0.13206 -1.1453E-05 -2.8956E-06  1.1814E-05 -165.812
   672  681   -0.3688    0.0650    0.0000   0.13206 -1.2588E-05  3.6571E-08  1.2588E-05  179.834
   673  682   -0.3688   -0.0650    0.0000   0.13206 -1.2301E-05  3.7291E-06  1.2854E-05  163.135
   674  683   -0.3243   -0.1872    0.0000   0.13206 -1.0412E-05  7.4388E-06  1.2797E-05  144.457
   675  684   -0.2407   -0.2869    0.0000   0.13207 -7.1196E-06  1.0391E-05  1.2596E-05  124.417
   676  685   -0.1281   -0.3519    0.0000   0.13206 -2.9471E-06  1.1974E-05  1.2331E-05  103.828
   677  686    0.0000   -0.3745    0.0000   0.13206  1.4174E-06  1.1903E-05  1.1987E-05   83.209
   678  687    0.1281   -0.3519    0.0000   0.13206  5.3128E-06  1.0237E-05  1.1534E-05   62.572
   679  688    0.2407   -0.2869    0.0000   0.13207  8.2113E-06  7.2825E-06  1.0975E-05   41.570
   680  689    0.3243   -0.1872    0.0000   0.13206  9.7753E-06  3.5194E-06  1.0390E-05   19.800
   681  690    0.3688   -0.0650    0.0000   0.13206  9.8813E-06 -4.9941E-07  9.8939E-06   -2.893
   682  691    0.4303    0.0759    0.0000   0.15407  6.0317E-06 -6.7457E-06  9.0491E-06  -48.198
   683  692    0.3784    0.2184    0.0000   0.15407  3.0580E-06 -8.5239E-06  9.0558E-06  -70.264
   684  693    0.2808    0.3347    0.0000   0.15407 -1.8850E-07 -9.0765E-06  9.0784E-06  -91.190
   685  694    0.1494    0.4105    0.0000   0.15407 -3.3298E-06 -8.3892E-06  9.0259E-06 -111.649
   686  695    0.0000    0.4369    0.0000   0.15407 -6.0811E-06 -6.6621E-06  9.0202E-06 -132.389
   687  696   -0.1494    0.4105    0.0000   0.15407 -8.2589E-06 -4.2635E-06  9.2944E-06 -152.696
   688  697   -0.2808    0.3347    0.0000   0.15407 -9.7491E-06 -1.6187E-06  9.8825E-06 -170.573
   689  698   -0.3784    0.2184    0.0000   0.15407 -1.0438E-05  1.0423E-06  1.0490E-05  174.298
   690  699   -0.4303    0.0759    0.0000   0.15407 -1.0099E-05  3.9440E-06  1.0841E-05  158.667
   691  700   -0.4303   -0.0759    0.0000   0.15407 -8.5086E-06  6.9141E-06  1.0964E-05  140.902
   692  701   -0.3784   -0.2184    0.0000   0.15407 -5.7047E-06  9.3696E-06  1.0970E-05  121.335
   693  702   -0.2808   -0.3347    0.0000   0.15407 -2.0465E-06  1.0748E-05  1.0941E-05  100.781
   694  703   -0.1494   -0.4105    0.0000   0.15407  1.8763E-06  1.0708E-05  1.0871E-05   80.061
   695  704    0.0000   -0.4369    0.0000   0.15407  5.4213E-06  9.2311E-06  1.0705E-05   59.575
   696  705    0.1494   -0.4105    0.0000   0.15407  8.0642E-06  6.5803E-06  1.0408E-05   39.214
   697  706    0.2808   -0.3347    0.0000   0.15407  9.4804E-06  3.1782E-06  9.9990E-06   18.533
   698  707    0.3784   -0.2184    0.0000   0.15407  9.5446E-06 -4.9207E-07  9.5573E-06   -2.951
   699  708    0.4303   -0.0759    0.0000   0.15407  8.3172E-06 -3.9480E-06  9.2067E-06  -25.393
   700  709    0.4917    0.0867    0.0000   0.17608  3.7675E-06 -8.3257E-06  9.1385E-06  -65.652
   701  710    0.4324    0.2497    0.0000   0.17608  4.3388E-07 -9.1854E-06  9.1956E-06  -87.296
   702  711    0.3209    0.3825    0.0000   0.17608 -2.8224E-06 -8.8187E-06  9.2594E-06 -107.747
   703  712    0.1708    0.4692    0.0000   0.17608 -5.6395E-06 -7.3082E-06  9.2311E-06 -127.656
   704  713    0.0000    0.4993    0.0000   0.17608 -7.7894E-06 -4.9138E-06  9.2099E-06 -147.755
   705  714   -0.1708    0.4692    0.0000   0.17608 -9.1587E-06 -2.0267E-06  9.3803E-06 -167.522
   706  715   -0.3209    0.3825    0.0000   0.17608 -9.6978E-06  9.4985E-07  9.7443E-06  174.406
   707  716   -0.4324    0.2497    0.0000   0.17608 -9.3454E-06  3.7872E-06  1.0084E-05  157.940
   708  717   -0.4917    0.0867    0.0000   0.17608 -7.9821E-06  6.4756E-06  1.0278E-05  140.949
   709  718   -0.4917   -0.0867    0.0000   0.17608 -5.5419E-06  8.7934E-06  1.0394E-05  122.221
   710  719   -0.4324   -0.2497    0.0000   0.17608 -2.1929E-06  1.0272E-05  1.0504E-05  102.051
   711  720   -0.3209   -0.3825    0.0000   0.17608  1.6083E-06  1.0488E-05  1.0611E-05   81.282
   712  721   -0.1708   -0.4692    0.0000   0.17608  5.2191E-06  9.2920E-06  1.0657E-05   60.678
   713  722    0.0000   -0.4993    0.0000   0.17608  8.0431E-06  6.8597E-06  1.0571E-05   40.460
   714  723    0.1708   -0.4692    0.0000   0.17608  9.6774E-06  3.5996E-06  1.0325E-05   20.403
   715  724    0.3209   -0.3825    0.0000   0.17608  9.9559E-06  8.3130E-09  9.9559E-06    0.048
   716  725    0.4324   -0.2497    0.0000   0.17608  8.9116E-06 -3.4425E-06  9.5534E-06  -21.121
   717  726    0.4917   -0.0867    0.0000   0.17608  6.7376E-06 -6.3330E-06  9.2467E-06  -43.227
   718  727    0.5532    0.0975    0.0000   0.19809  1.5033E-06 -8.9988E-06  9.1235E-06  -80.516
   719  728    0.4865    0.2809    0.0000   0.19809 -1.9116E-06 -8.9961E-06  9.1969E-06 -101.997
   720  729    0.3611    0.4303    0.0000   0.19809 -4.9442E-06 -7.8482E-06  9.2757E-06 -122.210
   721  730    0.1921    0.5278    0.0000   0.19809 -7.2712E-06 -5.7190E-06  9.2508E-06 -141.814
   722  731    0.0000    0.5617    0.0000   0.19809 -8.7313E-06 -2.9168E-06  9.2056E-06 -161.527
   723  732   -0.1921    0.5278    0.0000   0.19809 -9.2884E-06  1.6383E-07  9.2898E-06  178.990
   724  733   -0.3611    0.4303    0.0000   0.19809 -8.9649E-06  3.1437E-06  9.5001E-06  160.676
   725  734   -0.4865    0.2809    0.0000   0.19809 -7.7764E-06  5.8003E-06  9.7013E-06  143.281
   726  735   -0.5532    0.0975    0.0000   0.19809 -5.6935E-06  8.0365E-06  9.8489E-06  125.316
   727  736   -0.5532   -0.0975    0.0000   0.19809 -2.7488E-06  9.6285E-06  1.0013E-05  105.933
   728  737   -0.4865   -0.2809    0.0000   0.19809  8.0640E-07  1.0199E-05  1.0230E-05   85.479
   729  738   -0.3611   -0.4303    0.0000   0.19809  4.4537E-06  9.4545E-06  1.0451E-05   64.776
   730  739   -0.1921   -0.5278    0.0000   0.19809  7.5584E-06  7.3986E-06  1.0577E-05   44.388
   731  740    0.0000   -0.5617    0.0000   0.19809  9.5891E-06  4.3527E-06  1.0531E-05   24.414
   732  741    0.1921   -0.5278    0.0000   0.19809  1.0268E-05  8.2722E-07  1.0301E-05    4.606
   733  742    0.3611   -0.4303    0.0000   0.19809  9.5748E-06 -2.6511E-06  9.9351E-06  -15.477
   734  743    0.4865   -0.2809    0.0000   0.19809  7.6744E-06 -5.6518E-06  9.5309E-06  -36.370
   735  744    0.5532   -0.0975    0.0000   0.19809  4.8527E-06 -7.8441E-06  9.2238E-06  -58.257
   736  745    0.6146    0.1084    0.0000   0.22010 -1.4010E-06 -1.0531E-05  1.0624E-05  -97.578
   737  746    0.5405    0.3121    0.0000   0.22010 -5.2200E-06 -9.3734E-06  1.0729E-05 -119.113
   738  747    0.4012    0.4781    0.0000   0.22010 -8.2190E-06 -7.0790E-06  1.0847E-05 -139.262
   739  748    0.2135    0.5865    0.0000   0.22010 -1.0088E-05 -3.9373E-06  1.0829E-05 -158.679
   740  749    0.0000    0.6241    0.0000   0.22010 -1.0733E-05 -3.5494E-07  1.0739E-05 -178.106
   741  750   -0.2135    0.5865    0.0000   0.22010 -1.0239E-05  3.2116E-06  1.0730E-05  162.585
   742  751   -0.4012    0.4781    0.0000   0.22010 -8.7518E-06  6.3696E-06  1.0824E-05  143.953
   743  752   -0.5405    0.3121    0.0000   0.22010 -6.3945E-06  8.8822E-06  1.0945E-05  125.751
   744  753   -0.6146    0.1084    0.0000   0.22010 -3.2432E-06  1.0633E-05  1.1117E-05  106.961
   745  754   -0.6146   -0.1084    0.0000   0.22010  5.7008E-07  1.1406E-05  1.1420E-05   87.139
   746  755   -0.5405   -0.3121    0.0000   0.22010  4.6848E-06  1.0871E-05  1.1837E-05   66.686
   747  756   -0.4012   -0.4781    0.0000   0.22010  8.4700E-06  8.8443E-06  1.2246E-05   46.238
   748  757   -0.2135   -0.5865    0.0000   0.22010  1.1210E-05  5.5086E-06  1.2491E-05   26.169
   749  758    0.0000   -0.6241    0.0000   0.22010  1.2392E-05  1.4137E-06  1.2472E-05    6.508
   750  759    0.2135   -0.5865    0.0000   0.22010  1.1877E-05 -2.7405E-06  1.2189E-05  -12.993
   751  760    0.4012   -0.4781    0.0000   0.22010  9.8511E-06 -6.3425E-06  1.1716E-05  -32.775
   752  761    0.5405   -0.3121    0.0000   0.22010  6.6637E-06 -8.9740E-06  1.1178E-05  -53.404
   753  762    0.6146   -0.1084    0.0000   0.22010  2.7446E-06 -1.0404E-05  1.0760E-05  -75.222
   754  763   -0.1269    0.0646    0.0867   0.04625  5.3367E-05  4.5021E+02  4.5021E+02   90.000


                               ---------- POWER BUDGET ---------
                               INPUT POWER   =  2.8783E-05 Watts
                               RADIATED POWER=  2.8783E-05 Watts
                               STRUCTURE LOSS=  0.0000E+00 Watts
                               NETWORK LOSS  =  0.0000E+00 Watts
                               EFFICIENCY    =  100.00 Percent



*****  DATA CARD N0.   4 EN   0     0     0     0  0.00000E+00  0.00000E+00  0.00000E+00  0.00000E+00  0.00000E+00  0.00000E+00

  TOTAL RUN TIME: 25320 msec