


                               __________________________________________
                              |                                          |
                              |  NUMERICAL ELECTROMAGNETICS CODE (nec2c) |
                              |   Translated to 'C' in Double Precision  |
                              |__________________________________________|



                               ---------------- COMMENTS ----------------
                               Length L in mtr. = 0.612
                               Radius R1 in cm. = 2.275
                               Radius R2 in cm. = 2.275
                               Number of turns = 19
                               Segments per turn = 16
                               Rotate X, Y, Z = 0, 0, 0
                               Move X, Y, Z = 0, 0, 0
                              



                               -------- STRUCTURE SPECIFICATION --------
                                     COORDINATES MUST BE INPUT IN
                                     METERS OR BE SCALED TO METERS
                                     BEFORE STRUCTURE INPUT IS ENDED

  WIRE                                                                                 SEG FIRST  LAST  TAG
   No:        X1         Y1         Z1         X2         Y2         Z2       RADIUS   No:   SEG   SEG  No:
     1      0.0000     0.0000     0.0000     0.0227     0.0000     0.0000     0.0013     1     1     1    1
     2      0.0227     0.0000     0.0000     0.0210     0.0087     0.0020     0.0013     1     2     2    2
     3      0.0210     0.0087     0.0020     0.0161     0.0161     0.0040     0.0013     1     3     3    3
     4      0.0161     0.0161     0.0040     0.0087     0.0210     0.0060     0.0013     1     4     4    4
     5      0.0087     0.0210     0.0060     0.0000     0.0227     0.0081     0.0013     1     5     5    5
     6      0.0000     0.0227     0.0081    -0.0087     0.0210     0.0101     0.0013     1     6     6    6
     7     -0.0087     0.0210     0.0101    -0.0161     0.0161     0.0121     0.0013     1     7     7    7
     8     -0.0161     0.0161     0.0121    -0.0210     0.0087     0.0141     0.0013     1     8     8    8
     9     -0.0210     0.0087     0.0141    -0.0227     0.0000     0.0161     0.0013     1     9     9    9
    10     -0.0227     0.0000     0.0161    -0.0210    -0.0087     0.0181     0.0013     1    10    10   10
    11     -0.0210    -0.0087     0.0181    -0.0161    -0.0161     0.0201     0.0013     1    11    11   11
    12     -0.0161    -0.0161     0.0201    -0.0087    -0.0210     0.0221     0.0013     1    12    12   12
    13     -0.0087    -0.0210     0.0221     0.0000    -0.0227     0.0242     0.0013     1    13    13   13
    14      0.0000    -0.0227     0.0242     0.0087    -0.0210     0.0262     0.0013     1    14    14   14
    15      0.0087    -0.0210     0.0262     0.0161    -0.0161     0.0282     0.0013     1    15    15   15
    16      0.0161    -0.0161     0.0282     0.0210    -0.0087     0.0302     0.0013     1    16    16   16
    17      0.0210    -0.0087     0.0302     0.0227     0.0000     0.0322     0.0013     1    17    17   17
    18      0.0227     0.0000     0.0322     0.0210     0.0087     0.0342     0.0013     1    18    18   18
    19      0.0210     0.0087     0.0342     0.0161     0.0161     0.0362     0.0013     1    19    19   19
    20      0.0161     0.0161     0.0362     0.0087     0.0210     0.0382     0.0013     1    20    20   20
    21      0.0087     0.0210     0.0382     0.0000     0.0227     0.0403     0.0013     1    21    21   21
    22      0.0000     0.0227     0.0403    -0.0087     0.0210     0.0423     0.0013     1    22    22   22
    23     -0.0087     0.0210     0.0423    -0.0161     0.0161     0.0443     0.0013     1    23    23   23
    24     -0.0161     0.0161     0.0443    -0.0210     0.0087     0.0463     0.0013     1    24    24   24
    25     -0.0210     0.0087     0.0463    -0.0227     0.0000     0.0483     0.0013     1    25    25   25
    26     -0.0227     0.0000     0.0483    -0.0210    -0.0087     0.0503     0.0013     1    26    26   26
    27     -0.0210    -0.0087     0.0503    -0.0161    -0.0161     0.0523     0.0013     1    27    27   27
    28     -0.0161    -0.0161     0.0523    -0.0087    -0.0210     0.0544     0.0013     1    28    28   28
    29     -0.0087    -0.0210     0.0544     0.0000    -0.0227     0.0564     0.0013     1    29    29   29
    30      0.0000    -0.0227     0.0564     0.0087    -0.0210     0.0584     0.0013     1    30    30   30
    31      0.0087    -0.0210     0.0584     0.0161    -0.0161     0.0604     0.0013     1    31    31   31
    32      0.0161    -0.0161     0.0604     0.0210    -0.0087     0.0624     0.0013     1    32    32   32
    33      0.0210    -0.0087     0.0624     0.0227     0.0000     0.0644     0.0013     1    33    33   33
    34      0.0227     0.0000     0.0644     0.0210     0.0087     0.0664     0.0013     1    34    34   34
    35      0.0210     0.0087     0.0664     0.0161     0.0161     0.0684     0.0013     1    35    35   35
    36      0.0161     0.0161     0.0684     0.0087     0.0210     0.0705     0.0013     1    36    36   36
    37      0.0087     0.0210     0.0705     0.0000     0.0227     0.0725     0.0013     1    37    37   37
    38      0.0000     0.0227     0.0725    -0.0087     0.0210     0.0745     0.0013     1    38    38   38
    39     -0.0087     0.0210     0.0745    -0.0161     0.0161     0.0765     0.0013     1    39    39   39
    40     -0.0161     0.0161     0.0765    -0.0210     0.0087     0.0785     0.0013     1    40    40   40
    41     -0.0210     0.0087     0.0785    -0.0227     0.0000     0.0805     0.0013     1    41    41   41
    42     -0.0227     0.0000     0.0805    -0.0210    -0.0087     0.0825     0.0013     1    42    42   42
    43     -0.0210    -0.0087     0.0825    -0.0161    -0.0161     0.0846     0.0013     1    43    43   43
    44     -0.0161    -0.0161     0.0846    -0.0087    -0.0210     0.0866     0.0013     1    44    44   44
    45     -0.0087    -0.0210     0.0866     0.0000    -0.0227     0.0886     0.0013     1    45    45   45
    46      0.0000    -0.0227     0.0886     0.0087    -0.0210     0.0906     0.0013     1    46    46   46
    47      0.0087    -0.0210     0.0906     0.0161    -0.0161     0.0926     0.0013     1    47    47   47
    48      0.0161    -0.0161     0.0926     0.0210    -0.0087     0.0946     0.0013     1    48    48   48
    49      0.0210    -0.0087     0.0946     0.0227     0.0000     0.0966     0.0013     1    49    49   49
    50      0.0227     0.0000     0.0966     0.0210     0.0087     0.0986     0.0013     1    50    50   50
    51      0.0210     0.0087     0.0986     0.0161     0.0161     0.1007     0.0013     1    51    51   51
    52      0.0161     0.0161     0.1007     0.0087     0.0210     0.1027     0.0013     1    52    52   52
    53      0.0087     0.0210     0.1027     0.0000     0.0227     0.1047     0.0013     1    53    53   53
    54      0.0000     0.0227     0.1047    -0.0087     0.0210     0.1067     0.0013     1    54    54   54
    55     -0.0087     0.0210     0.1067    -0.0161     0.0161     0.1087     0.0013     1    55    55   55
    56     -0.0161     0.0161     0.1087    -0.0210     0.0087     0.1107     0.0013     1    56    56   56
    57     -0.0210     0.0087     0.1107    -0.0227     0.0000     0.1127     0.0013     1    57    57   57
    58     -0.0227     0.0000     0.1127    -0.0210    -0.0087     0.1148     0.0013     1    58    58   58
    59     -0.0210    -0.0087     0.1148    -0.0161    -0.0161     0.1168     0.0013     1    59    59   59
    60     -0.0161    -0.0161     0.1168    -0.0087    -0.0210     0.1188     0.0013     1    60    60   60
    61     -0.0087    -0.0210     0.1188     0.0000    -0.0227     0.1208     0.0013     1    61    61   61
    62      0.0000    -0.0227     0.1208     0.0087    -0.0210     0.1228     0.0013     1    62    62   62
    63      0.0087    -0.0210     0.1228     0.0161    -0.0161     0.1248     0.0013     1    63    63   63
    64      0.0161    -0.0161     0.1248     0.0210    -0.0087     0.1268     0.0013     1    64    64   64
    65      0.0210    -0.0087     0.1268     0.0227     0.0000     0.1288     0.0013     1    65    65   65
    66      0.0227     0.0000     0.1288     0.0210     0.0087     0.1309     0.0013     1    66    66   66
    67      0.0210     0.0087     0.1309     0.0161     0.0161     0.1329     0.0013     1    67    67   67
    68      0.0161     0.0161     0.1329     0.0087     0.0210     0.1349     0.0013     1    68    68   68
    69      0.0087     0.0210     0.1349     0.0000     0.0227     0.1369     0.0013     1    69    69   69
    70      0.0000     0.0227     0.1369    -0.0087     0.0210     0.1389     0.0013     1    70    70   70
    71     -0.0087     0.0210     0.1389    -0.0161     0.0161     0.1409     0.0013     1    71    71   71
    72     -0.0161     0.0161     0.1409    -0.0210     0.0087     0.1429     0.0013     1    72    72   72
    73     -0.0210     0.0087     0.1429    -0.0227     0.0000     0.1449     0.0013     1    73    73   73
    74     -0.0227     0.0000     0.1449    -0.0210    -0.0087     0.1470     0.0013     1    74    74   74
    75     -0.0210    -0.0087     0.1470    -0.0161    -0.0161     0.1490     0.0013     1    75    75   75
    76     -0.0161    -0.0161     0.1490    -0.0087    -0.0210     0.1510     0.0013     1    76    76   76
    77     -0.0087    -0.0210     0.1510     0.0000    -0.0227     0.1530     0.0013     1    77    77   77
    78      0.0000    -0.0227     0.1530     0.0087    -0.0210     0.1550     0.0013     1    78    78   78
    79      0.0087    -0.0210     0.1550     0.0161    -0.0161     0.1570     0.0013     1    79    79   79
    80      0.0161    -0.0161     0.1570     0.0210    -0.0087     0.1590     0.0013     1    80    80   80
    81      0.0210    -0.0087     0.1590     0.0227     0.0000     0.1611     0.0013     1    81    81   81
    82      0.0227     0.0000     0.1611     0.0210     0.0087     0.1631     0.0013     1    82    82   82
    83      0.0210     0.0087     0.1631     0.0161     0.0161     0.1651     0.0013     1    83    83   83
    84      0.0161     0.0161     0.1651     0.0087     0.0210     0.1671     0.0013     1    84    84   84
    85      0.0087     0.0210     0.1671     0.0000     0.0227     0.1691     0.0013     1    85    85   85
    86      0.0000     0.0227     0.1691    -0.0087     0.0210     0.1711     0.0013     1    86    86   86
    87     -0.0087     0.0210     0.1711    -0.0161     0.0161     0.1731     0.0013     1    87    87   87
    88     -0.0161     0.0161     0.1731    -0.0210     0.0087     0.1751     0.0013     1    88    88   88
    89     -0.0210     0.0087     0.1751    -0.0227     0.0000     0.1772     0.0013     1    89    89   89
    90     -0.0227     0.0000     0.1772    -0.0210    -0.0087     0.1792     0.0013     1    90    90   90
    91     -0.0210    -0.0087     0.1792    -0.0161    -0.0161     0.1812     0.0013     1    91    91   91
    92     -0.0161    -0.0161     0.1812    -0.0087    -0.0210     0.1832     0.0013     1    92    92   92
    93     -0.0087    -0.0210     0.1832     0.0000    -0.0227     0.1852     0.0013     1    93    93   93
    94      0.0000    -0.0227     0.1852     0.0087    -0.0210     0.1872     0.0013     1    94    94   94
    95      0.0087    -0.0210     0.1872     0.0161    -0.0161     0.1892     0.0013     1    95    95   95
    96      0.0161    -0.0161     0.1892     0.0210    -0.0087     0.1913     0.0013     1    96    96   96
    97      0.0210    -0.0087     0.1913     0.0227     0.0000     0.1933     0.0013     1    97    97   97
    98      0.0227     0.0000     0.1933     0.0210     0.0087     0.1953     0.0013     1    98    98   98
    99      0.0210     0.0087     0.1953     0.0161     0.0161     0.1973     0.0013     1    99    99   99
   100      0.0161     0.0161     0.1973     0.0087     0.0210     0.1993     0.0013     1   100   100  100
   101      0.0087     0.0210     0.1993     0.0000     0.0227     0.2013     0.0013     1   101   101  101
   102      0.0000     0.0227     0.2013    -0.0087     0.0210     0.2033     0.0013     1   102   102  102
   103     -0.0087     0.0210     0.2033    -0.0161     0.0161     0.2053     0.0013     1   103   103  103
   104     -0.0161     0.0161     0.2053    -0.0210     0.0087     0.2074     0.0013     1   104   104  104
   105     -0.0210     0.0087     0.2074    -0.0227     0.0000     0.2094     0.0013     1   105   105  105
   106     -0.0227     0.0000     0.2094    -0.0210    -0.0087     0.2114     0.0013     1   106   106  106
   107     -0.0210    -0.0087     0.2114    -0.0161    -0.0161     0.2134     0.0013     1   107   107  107
   108     -0.0161    -0.0161     0.2134    -0.0087    -0.0210     0.2154     0.0013     1   108   108  108
   109     -0.0087    -0.0210     0.2154     0.0000    -0.0227     0.2174     0.0013     1   109   109  109
   110      0.0000    -0.0227     0.2174     0.0087    -0.0210     0.2194     0.0013     1   110   110  110
   111      0.0087    -0.0210     0.2194     0.0161    -0.0161     0.2214     0.0013     1   111   111  111
   112      0.0161    -0.0161     0.2214     0.0210    -0.0087     0.2235     0.0013     1   112   112  112
   113      0.0210    -0.0087     0.2235     0.0227     0.0000     0.2255     0.0013     1   113   113  113
   114      0.0227     0.0000     0.2255     0.0210     0.0087     0.2275     0.0013     1   114   114  114
   115      0.0210     0.0087     0.2275     0.0161     0.0161     0.2295     0.0013     1   115   115  115
   116      0.0161     0.0161     0.2295     0.0087     0.0210     0.2315     0.0013     1   116   116  116
   117      0.0087     0.0210     0.2315     0.0000     0.0227     0.2335     0.0013     1   117   117  117
   118      0.0000     0.0227     0.2335    -0.0087     0.0210     0.2355     0.0013     1   118   118  118
   119     -0.0087     0.0210     0.2355    -0.0161     0.0161     0.2376     0.0013     1   119   119  119
   120     -0.0161     0.0161     0.2376    -0.0210     0.0087     0.2396     0.0013     1   120   120  120
   121     -0.0210     0.0087     0.2396    -0.0227     0.0000     0.2416     0.0013     1   121   121  121
   122     -0.0227     0.0000     0.2416    -0.0210    -0.0087     0.2436     0.0013     1   122   122  122
   123     -0.0210    -0.0087     0.2436    -0.0161    -0.0161     0.2456     0.0013     1   123   123  123
   124     -0.0161    -0.0161     0.2456    -0.0087    -0.0210     0.2476     0.0013     1   124   124  124
   125     -0.0087    -0.0210     0.2476     0.0000    -0.0227     0.2496     0.0013     1   125   125  125
   126      0.0000    -0.0227     0.2496     0.0087    -0.0210     0.2516     0.0013     1   126   126  126
   127      0.0087    -0.0210     0.2516     0.0161    -0.0161     0.2537     0.0013     1   127   127  127
   128      0.0161    -0.0161     0.2537     0.0210    -0.0087     0.2557     0.0013     1   128   128  128
   129      0.0210    -0.0087     0.2557     0.0227     0.0000     0.2577     0.0013     1   129   129  129
   130      0.0227     0.0000     0.2577     0.0210     0.0087     0.2597     0.0013     1   130   130  130
   131      0.0210     0.0087     0.2597     0.0161     0.0161     0.2617     0.0013     1   131   131  131
   132      0.0161     0.0161     0.2617     0.0087     0.0210     0.2637     0.0013     1   132   132  132
   133      0.0087     0.0210     0.2637     0.0000     0.0227     0.2657     0.0013     1   133   133  133
   134      0.0000     0.0227     0.2657    -0.0087     0.0210     0.2677     0.0013     1   134   134  134
   135     -0.0087     0.0210     0.2677    -0.0161     0.0161     0.2698     0.0013     1   135   135  135
   136     -0.0161     0.0161     0.2698    -0.0210     0.0087     0.2718     0.0013     1   136   136  136
   137     -0.0210     0.0087     0.2718    -0.0227     0.0000     0.2738     0.0013     1   137   137  137
   138     -0.0227     0.0000     0.2738    -0.0210    -0.0087     0.2758     0.0013     1   138   138  138
   139     -0.0210    -0.0087     0.2758    -0.0161    -0.0161     0.2778     0.0013     1   139   139  139
   140     -0.0161    -0.0161     0.2778    -0.0087    -0.0210     0.2798     0.0013     1   140   140  140
   141     -0.0087    -0.0210     0.2798     0.0000    -0.0227     0.2818     0.0013     1   141   141  141
   142      0.0000    -0.0227     0.2818     0.0087    -0.0210     0.2839     0.0013     1   142   142  142
   143      0.0087    -0.0210     0.2839     0.0161    -0.0161     0.2859     0.0013     1   143   143  143
   144      0.0161    -0.0161     0.2859     0.0210    -0.0087     0.2879     0.0013     1   144   144  144
   145      0.0210    -0.0087     0.2879     0.0227     0.0000     0.2899     0.0013     1   145   145  145
   146      0.0227     0.0000     0.2899     0.0210     0.0087     0.2919     0.0013     1   146   146  146
   147      0.0210     0.0087     0.2919     0.0161     0.0161     0.2939     0.0013     1   147   147  147
   148      0.0161     0.0161     0.2939     0.0087     0.0210     0.2959     0.0013     1   148   148  148
   149      0.0087     0.0210     0.2959     0.0000     0.0227     0.2979     0.0013     1   149   149  149
   150      0.0000     0.0227     0.2979    -0.0087     0.0210     0.3000     0.0013     1   150   150  150
   151     -0.0087     0.0210     0.3000    -0.0161     0.0161     0.3020     0.0013     1   151   151  151
   152     -0.0161     0.0161     0.3020    -0.0210     0.0087     0.3040     0.0013     1   152   152  152
   153     -0.0210     0.0087     0.3040    -0.0227     0.0000     0.3060     0.0013     1   153   153  153
   154     -0.0227     0.0000     0.3060    -0.0210    -0.0087     0.3080     0.0013     1   154   154  154
   155     -0.0210    -0.0087     0.3080    -0.0161    -0.0161     0.3100     0.0013     1   155   155  155
   156     -0.0161    -0.0161     0.3100    -0.0087    -0.0210     0.3120     0.0013     1   156   156  156
   157     -0.0087    -0.0210     0.3120     0.0000    -0.0227     0.3141     0.0013     1   157   157  157
   158      0.0000    -0.0227     0.3141     0.0087    -0.0210     0.3161     0.0013     1   158   158  158
   159      0.0087    -0.0210     0.3161     0.0161    -0.0161     0.3181     0.0013     1   159   159  159
   160      0.0161    -0.0161     0.3181     0.0210    -0.0087     0.3201     0.0013     1   160   160  160
   161      0.0210    -0.0087     0.3201     0.0227     0.0000     0.3221     0.0013     1   161   161  161
   162      0.0227     0.0000     0.3221     0.0210     0.0087     0.3241     0.0013     1   162   162  162
   163      0.0210     0.0087     0.3241     0.0161     0.0161     0.3261     0.0013     1   163   163  163
   164      0.0161     0.0161     0.3261     0.0087     0.0210     0.3281     0.0013     1   164   164  164
   165      0.0087     0.0210     0.3281     0.0000     0.0227     0.3302     0.0013     1   165   165  165
   166      0.0000     0.0227     0.3302    -0.0087     0.0210     0.3322     0.0013     1   166   166  166
   167     -0.0087     0.0210     0.3322    -0.0161     0.0161     0.3342     0.0013     1   167   167  167
   168     -0.0161     0.0161     0.3342    -0.0210     0.0087     0.3362     0.0013     1   168   168  168
   169     -0.0210     0.0087     0.3362    -0.0227     0.0000     0.3382     0.0013     1   169   169  169
   170     -0.0227     0.0000     0.3382    -0.0210    -0.0087     0.3402     0.0013     1   170   170  170
   171     -0.0210    -0.0087     0.3402    -0.0161    -0.0161     0.3422     0.0013     1   171   171  171
   172     -0.0161    -0.0161     0.3422    -0.0087    -0.0210     0.3443     0.0013     1   172   172  172
   173     -0.0087    -0.0210     0.3443     0.0000    -0.0227     0.3463     0.0013     1   173   173  173
   174      0.0000    -0.0227     0.3463     0.0087    -0.0210     0.3483     0.0013     1   174   174  174
   175      0.0087    -0.0210     0.3483     0.0161    -0.0161     0.3503     0.0013     1   175   175  175
   176      0.0161    -0.0161     0.3503     0.0210    -0.0087     0.3523     0.0013     1   176   176  176
   177      0.0210    -0.0087     0.3523     0.0227     0.0000     0.3543     0.0013     1   177   177  177
   178      0.0227     0.0000     0.3543     0.0210     0.0087     0.3563     0.0013     1   178   178  178
   179      0.0210     0.0087     0.3563     0.0161     0.0161     0.3583     0.0013     1   179   179  179
   180      0.0161     0.0161     0.3583     0.0087     0.0210     0.3604     0.0013     1   180   180  180
   181      0.0087     0.0210     0.3604     0.0000     0.0227     0.3624     0.0013     1   181   181  181
   182      0.0000     0.0227     0.3624    -0.0087     0.0210     0.3644     0.0013     1   182   182  182
   183     -0.0087     0.0210     0.3644    -0.0161     0.0161     0.3664     0.0013     1   183   183  183
   184     -0.0161     0.0161     0.3664    -0.0210     0.0087     0.3684     0.0013     1   184   184  184
   185     -0.0210     0.0087     0.3684    -0.0227     0.0000     0.3704     0.0013     1   185   185  185
   186     -0.0227     0.0000     0.3704    -0.0210    -0.0087     0.3724     0.0013     1   186   186  186
   187     -0.0210    -0.0087     0.3724    -0.0161    -0.0161     0.3744     0.0013     1   187   187  187
   188     -0.0161    -0.0161     0.3744    -0.0087    -0.0210     0.3765     0.0013     1   188   188  188
   189     -0.0087    -0.0210     0.3765     0.0000    -0.0227     0.3785     0.0013     1   189   189  189
   190      0.0000    -0.0227     0.3785     0.0087    -0.0210     0.3805     0.0013     1   190   190  190
   191      0.0087    -0.0210     0.3805     0.0161    -0.0161     0.3825     0.0013     1   191   191  191
   192      0.0161    -0.0161     0.3825     0.0210    -0.0087     0.3845     0.0013     1   192   192  192
   193      0.0210    -0.0087     0.3845     0.0227     0.0000     0.3865     0.0013     1   193   193  193
   194      0.0227     0.0000     0.3865     0.0210     0.0087     0.3885     0.0013     1   194   194  194
   195      0.0210     0.0087     0.3885     0.0161     0.0161     0.3906     0.0013     1   195   195  195
   196      0.0161     0.0161     0.3906     0.0087     0.0210     0.3926     0.0013     1   196   196  196
   197      0.0087     0.0210     0.3926     0.0000     0.0227     0.3946     0.0013     1   197   197  197
   198      0.0000     0.0227     0.3946    -0.0087     0.0210     0.3966     0.0013     1   198   198  198
   199     -0.0087     0.0210     0.3966    -0.0161     0.0161     0.3986     0.0013     1   199   199  199
   200     -0.0161     0.0161     0.3986    -0.0210     0.0087     0.4006     0.0013     1   200   200  200
   201     -0.0210     0.0087     0.4006    -0.0227     0.0000     0.4026     0.0013     1   201   201  201
   202     -0.0227     0.0000     0.4026    -0.0210    -0.0087     0.4046     0.0013     1   202   202  202
   203     -0.0210    -0.0087     0.4046    -0.0161    -0.0161     0.4067     0.0013     1   203   203  203
   204     -0.0161    -0.0161     0.4067    -0.0087    -0.0210     0.4087     0.0013     1   204   204  204
   205     -0.0087    -0.0210     0.4087     0.0000    -0.0227     0.4107     0.0013     1   205   205  205
   206      0.0000    -0.0227     0.4107     0.0087    -0.0210     0.4127     0.0013     1   206   206  206
   207      0.0087    -0.0210     0.4127     0.0161    -0.0161     0.4147     0.0013     1   207   207  207
   208      0.0161    -0.0161     0.4147     0.0210    -0.0087     0.4167     0.0013     1   208   208  208
   209      0.0210    -0.0087     0.4167     0.0227     0.0000     0.4187     0.0013     1   209   209  209
   210      0.0227     0.0000     0.4187     0.0210     0.0087     0.4208     0.0013     1   210   210  210
   211      0.0210     0.0087     0.4208     0.0161     0.0161     0.4228     0.0013     1   211   211  211
   212      0.0161     0.0161     0.4228     0.0087     0.0210     0.4248     0.0013     1   212   212  212
   213      0.0087     0.0210     0.4248     0.0000     0.0227     0.4268     0.0013     1   213   213  213
   214      0.0000     0.0227     0.4268    -0.0087     0.0210     0.4288     0.0013     1   214   214  214
   215     -0.0087     0.0210     0.4288    -0.0161     0.0161     0.4308     0.0013     1   215   215  215
   216     -0.0161     0.0161     0.4308    -0.0210     0.0087     0.4328     0.0013     1   216   216  216
   217     -0.0210     0.0087     0.4328    -0.0227     0.0000     0.4348     0.0013     1   217   217  217
   218     -0.0227     0.0000     0.4348    -0.0210    -0.0087     0.4369     0.0013     1   218   218  218
   219     -0.0210    -0.0087     0.4369    -0.0161    -0.0161     0.4389     0.0013     1   219   219  219
   220     -0.0161    -0.0161     0.4389    -0.0087    -0.0210     0.4409     0.0013     1   220   220  220
   221     -0.0087    -0.0210     0.4409     0.0000    -0.0227     0.4429     0.0013     1   221   221  221
   222      0.0000    -0.0227     0.4429     0.0087    -0.0210     0.4449     0.0013     1   222   222  222
   223      0.0087    -0.0210     0.4449     0.0161    -0.0161     0.4469     0.0013     1   223   223  223
   224      0.0161    -0.0161     0.4469     0.0210    -0.0087     0.4489     0.0013     1   224   224  224
   225      0.0210    -0.0087     0.4489     0.0227     0.0000     0.4509     0.0013     1   225   225  225
   226      0.0227     0.0000     0.4509     0.0210     0.0087     0.4530     0.0013     1   226   226  226
   227      0.0210     0.0087     0.4530     0.0161     0.0161     0.4550     0.0013     1   227   227  227
   228      0.0161     0.0161     0.4550     0.0087     0.0210     0.4570     0.0013     1   228   228  228
   229      0.0087     0.0210     0.4570     0.0000     0.0227     0.4590     0.0013     1   229   229  229
   230      0.0000     0.0227     0.4590    -0.0087     0.0210     0.4610     0.0013     1   230   230  230
   231     -0.0087     0.0210     0.4610    -0.0161     0.0161     0.4630     0.0013     1   231   231  231
   232     -0.0161     0.0161     0.4630    -0.0210     0.0087     0.4650     0.0013     1   232   232  232
   233     -0.0210     0.0087     0.4650    -0.0227     0.0000     0.4671     0.0013     1   233   233  233
   234     -0.0227     0.0000     0.4671    -0.0210    -0.0087     0.4691     0.0013     1   234   234  234
   235     -0.0210    -0.0087     0.4691    -0.0161    -0.0161     0.4711     0.0013     1   235   235  235
   236     -0.0161    -0.0161     0.4711    -0.0087    -0.0210     0.4731     0.0013     1   236   236  236
   237     -0.0087    -0.0210     0.4731     0.0000    -0.0227     0.4751     0.0013     1   237   237  237
   238      0.0000    -0.0227     0.4751     0.0087    -0.0210     0.4771     0.0013     1   238   238  238
   239      0.0087    -0.0210     0.4771     0.0161    -0.0161     0.4791     0.0013     1   239   239  239
   240      0.0161    -0.0161     0.4791     0.0210    -0.0087     0.4811     0.0013     1   240   240  240
   241      0.0210    -0.0087     0.4811     0.0227     0.0000     0.4832     0.0013     1   241   241  241
   242      0.0227     0.0000     0.4832     0.0210     0.0087     0.4852     0.0013     1   242   242  242
   243      0.0210     0.0087     0.4852     0.0161     0.0161     0.4872     0.0013     1   243   243  243
   244      0.0161     0.0161     0.4872     0.0087     0.0210     0.4892     0.0013     1   244   244  244
   245      0.0087     0.0210     0.4892     0.0000     0.0227     0.4912     0.0013     1   245   245  245
   246      0.0000     0.0227     0.4912    -0.0087     0.0210     0.4932     0.0013     1   246   246  246
   247     -0.0087     0.0210     0.4932    -0.0161     0.0161     0.4952     0.0013     1   247   247  247
   248     -0.0161     0.0161     0.4952    -0.0210     0.0087     0.4973     0.0013     1   248   248  248
   249     -0.0210     0.0087     0.4973    -0.0227     0.0000     0.4993     0.0013     1   249   249  249
   250     -0.0227     0.0000     0.4993    -0.0210    -0.0087     0.5013     0.0013     1   250   250  250
   251     -0.0210    -0.0087     0.5013    -0.0161    -0.0161     0.5033     0.0013     1   251   251  251
   252     -0.0161    -0.0161     0.5033    -0.0087    -0.0210     0.5053     0.0013     1   252   252  252
   253     -0.0087    -0.0210     0.5053     0.0000    -0.0227     0.5073     0.0013     1   253   253  253
   254      0.0000    -0.0227     0.5073     0.0087    -0.0210     0.5093     0.0013     1   254   254  254
   255      0.0087    -0.0210     0.5093     0.0161    -0.0161     0.5113     0.0013     1   255   255  255
   256      0.0161    -0.0161     0.5113     0.0210    -0.0087     0.5134     0.0013     1   256   256  256
   257      0.0210    -0.0087     0.5134     0.0227     0.0000     0.5154     0.0013     1   257   257  257
   258      0.0227     0.0000     0.5154     0.0210     0.0087     0.5174     0.0013     1   258   258  258
   259      0.0210     0.0087     0.5174     0.0161     0.0161     0.5194     0.0013     1   259   259  259
   260      0.0161     0.0161     0.5194     0.0087     0.0210     0.5214     0.0013     1   260   260  260
   261      0.0087     0.0210     0.5214     0.0000     0.0227     0.5234     0.0013     1   261   261  261
   262      0.0000     0.0227     0.5234    -0.0087     0.0210     0.5254     0.0013     1   262   262  262
   263     -0.0087     0.0210     0.5254    -0.0161     0.0161     0.5274     0.0013     1   263   263  263
   264     -0.0161     0.0161     0.5274    -0.0210     0.0087     0.5295     0.0013     1   264   264  264
   265     -0.0210     0.0087     0.5295    -0.0227     0.0000     0.5315     0.0013     1   265   265  265
   266     -0.0227     0.0000     0.5315    -0.0210    -0.0087     0.5335     0.0013     1   266   266  266
   267     -0.0210    -0.0087     0.5335    -0.0161    -0.0161     0.5355     0.0013     1   267   267  267
   268     -0.0161    -0.0161     0.5355    -0.0087    -0.0210     0.5375     0.0013     1   268   268  268
   269     -0.0087    -0.0210     0.5375     0.0000    -0.0227     0.5395     0.0013     1   269   269  269
   270      0.0000    -0.0227     0.5395     0.0087    -0.0210     0.5415     0.0013     1   270   270  270
   271      0.0087    -0.0210     0.5415     0.0161    -0.0161     0.5436     0.0013     1   271   271  271
   272      0.0161    -0.0161     0.5436     0.0210    -0.0087     0.5456     0.0013     1   272   272  272
   273      0.0210    -0.0087     0.5456     0.0227     0.0000     0.5476     0.0013     1   273   273  273
   274      0.0227     0.0000     0.5476     0.0210     0.0087     0.5496     0.0013     1   274   274  274
   275      0.0210     0.0087     0.5496     0.0161     0.0161     0.5516     0.0013     1   275   275  275
   276      0.0161     0.0161     0.5516     0.0087     0.0210     0.5536     0.0013     1   276   276  276
   277      0.0087     0.0210     0.5536     0.0000     0.0227     0.5556     0.0013     1   277   277  277
   278      0.0000     0.0227     0.5556    -0.0087     0.0210     0.5576     0.0013     1   278   278  278
   279     -0.0087     0.0210     0.5576    -0.0161     0.0161     0.5597     0.0013     1   279   279  279
   280     -0.0161     0.0161     0.5597    -0.0210     0.0087     0.5617     0.0013     1   280   280  280
   281     -0.0210     0.0087     0.5617    -0.0227     0.0000     0.5637     0.0013     1   281   281  281
   282     -0.0227     0.0000     0.5637    -0.0210    -0.0087     0.5657     0.0013     1   282   282  282
   283     -0.0210    -0.0087     0.5657    -0.0161    -0.0161     0.5677     0.0013     1   283   283  283
   284     -0.0161    -0.0161     0.5677    -0.0087    -0.0210     0.5697     0.0013     1   284   284  284
   285     -0.0087    -0.0210     0.5697     0.0000    -0.0227     0.5717     0.0013     1   285   285  285
   286      0.0000    -0.0227     0.5717     0.0087    -0.0210     0.5737     0.0013     1   286   286  286
   287      0.0087    -0.0210     0.5737     0.0161    -0.0161     0.5758     0.0013     1   287   287  287
   288      0.0161    -0.0161     0.5758     0.0210    -0.0087     0.5778     0.0013     1   288   288  288
   289      0.0210    -0.0087     0.5778     0.0227     0.0000     0.5798     0.0013     1   289   289  289
   290      0.0227     0.0000     0.5798     0.0210     0.0087     0.5818     0.0013     1   290   290  290
   291      0.0210     0.0087     0.5818     0.0161     0.0161     0.5838     0.0013     1   291   291  291
   292      0.0161     0.0161     0.5838     0.0087     0.0210     0.5858     0.0013     1   292   292  292
   293      0.0087     0.0210     0.5858     0.0000     0.0227     0.5878     0.0013     1   293   293  293
   294      0.0000     0.0227     0.5878    -0.0087     0.0210     0.5899     0.0013     1   294   294  294
   295     -0.0087     0.0210     0.5899    -0.0161     0.0161     0.5919     0.0013     1   295   295  295
   296     -0.0161     0.0161     0.5919    -0.0210     0.0087     0.5939     0.0013     1   296   296  296
   297     -0.0210     0.0087     0.5939    -0.0227     0.0000     0.5959     0.0013     1   297   297  297
   298     -0.0227     0.0000     0.5959    -0.0210    -0.0087     0.5979     0.0013     1   298   298  298
   299     -0.0210    -0.0087     0.5979    -0.0161    -0.0161     0.5999     0.0013     1   299   299  299
   300     -0.0161    -0.0161     0.5999    -0.0087    -0.0210     0.6019     0.0013     1   300   300  300
   301     -0.0087    -0.0210     0.6019     0.0000    -0.0227     0.6039     0.0013     1   301   301  301
   302      0.0000    -0.0227     0.6039     0.0087    -0.0210     0.6060     0.0013     1   302   302  302
   303      0.0087    -0.0210     0.6060     0.0161    -0.0161     0.6080     0.0013     1   303   303  303
   304      0.0161    -0.0161     0.6080     0.0210    -0.0087     0.6100     0.0013     1   304   304  304
   305      0.0210    -0.0087     0.6100     0.0227     0.0000     0.6120     0.0013     1   305   305  305
   306      0.0227     0.0000     0.6120     0.0000     0.0000     0.6120     0.0013     1   306   306  306

     TOTAL SEGMENTS USED: 306   SEGMENTS IN A SYMMETRIC CELL: 306   SYMMETRY FLAG: 0


                               ---------- SEGMENTATION DATA ----------
                                        COORDINATES IN METERS
                            I+ AND I- INDICATE THE SEGMENTS BEFORE AND AFTER I

   SEG    COORDINATES OF SEGM CENTER     SEGM    ORIENTATION ANGLES    WIRE    CONNECTION DATA   TAG
   No:       X         Y         Z      LENGTH     ALPHA      BETA    RADIUS    I-     I    I+   No:
     1    0.0114    0.0000    0.0000    0.0227    0.0000    0.0000    0.0013     0     1     2     1
     2    0.0219    0.0044    0.0010    0.0091   12.7772  101.2517    0.0013     1     2     3     2
     3    0.0186    0.0124    0.0030    0.0091   12.7772  123.7456    0.0013     2     3     4     3
     4    0.0124    0.0186    0.0050    0.0091   12.7772  146.2544    0.0013     3     4     5     4
     5    0.0044    0.0219    0.0070    0.0091   12.7833  168.7483    0.0013     4     5     6     5
     6   -0.0044    0.0219    0.0091    0.0091   12.7772 -168.7483    0.0013     5     6     7     6
     7   -0.0124    0.0186    0.0111    0.0091   12.7772 -146.2544    0.0013     6     7     8     7
     8   -0.0186    0.0124    0.0131    0.0091   12.7772 -123.7456    0.0013     7     8     9     8
     9   -0.0219    0.0044    0.0151    0.0091   12.7772 -101.2517    0.0013     8     9    10     9
    10   -0.0219   -0.0044    0.0171    0.0091   12.7772  -78.7483    0.0013     9    10    11    10
    11   -0.0186   -0.0124    0.0191    0.0091   12.7833  -56.2544    0.0013    10    11    12    11
    12   -0.0124   -0.0186    0.0211    0.0091   12.7772  -33.7456    0.0013    11    12    13    12
    13   -0.0044   -0.0219    0.0232    0.0091   12.7772  -11.2517    0.0013    12    13    14    13
    14    0.0044   -0.0219    0.0252    0.0091   12.7772   11.2517    0.0013    13    14    15    14
    15    0.0124   -0.0186    0.0272    0.0091   12.7772   33.7456    0.0013    14    15    16    15
    16    0.0186   -0.0124    0.0292    0.0091   12.7772   56.2544    0.0013    15    16    17    16
    17    0.0219   -0.0044    0.0312    0.0091   12.7833   78.7483    0.0013    16    17    18    17
    18    0.0219    0.0044    0.0332    0.0091   12.7772  101.2517    0.0013    17    18    19    18
    19    0.0186    0.0124    0.0352    0.0091   12.7772  123.7456    0.0013    18    19    20    19
    20    0.0124    0.0186    0.0372    0.0091   12.7772  146.2544    0.0013    19    20    21    20
    21    0.0044    0.0219    0.0393    0.0091   12.7772  168.7483    0.0013    20    21    22    21
    22   -0.0044    0.0219    0.0413    0.0091   12.7772 -168.7483    0.0013    21    22    23    22
    23   -0.0124    0.0186    0.0433    0.0091   12.7772 -146.2544    0.0013    22    23    24    23
    24   -0.0186    0.0124    0.0453    0.0091   12.7833 -123.7456    0.0013    23    24    25    24
    25   -0.0219    0.0044    0.0473    0.0091   12.7772 -101.2517    0.0013    24    25    26    25
    26   -0.0219   -0.0044    0.0493    0.0091   12.7772  -78.7483    0.0013    25    26    27    26
    27   -0.0186   -0.0124    0.0513    0.0091   12.7772  -56.2544    0.0013    26    27    28    27
    28   -0.0124   -0.0186    0.0533    0.0091   12.7772  -33.7456    0.0013    27    28    29    28
    29   -0.0044   -0.0219    0.0554    0.0091   12.7772  -11.2517    0.0013    28    29    30    29
    30    0.0044   -0.0219    0.0574    0.0091   12.7833   11.2517    0.0013    29    30    31    30
    31    0.0124   -0.0186    0.0594    0.0091   12.7772   33.7456    0.0013    30    31    32    31
    32    0.0186   -0.0124    0.0614    0.0091   12.7772   56.2544    0.0013    31    32    33    32
    33    0.0219   -0.0044    0.0634    0.0091   12.7772   78.7483    0.0013    32    33    34    33
    34    0.0219    0.0044    0.0654    0.0091   12.7772  101.2517    0.0013    33    34    35    34
    35    0.0186    0.0124    0.0674    0.0091   12.7772  123.7456    0.0013    34    35    36    35
    36    0.0124    0.0186    0.0695    0.0091   12.7833  146.2544    0.0013    35    36    37    36
    37    0.0044    0.0219    0.0715    0.0091   12.7772  168.7483    0.0013    36    37    38    37
    38   -0.0044    0.0219    0.0735    0.0091   12.7772 -168.7483    0.0013    37    38    39    38
    39   -0.0124    0.0186    0.0755    0.0091   12.7772 -146.2544    0.0013    38    39    40    39
    40   -0.0186    0.0124    0.0775    0.0091   12.7772 -123.7456    0.0013    39    40    41    40
    41   -0.0219    0.0044    0.0795    0.0091   12.7772 -101.2517    0.0013    40    41    42    41
    42   -0.0219   -0.0044    0.0815    0.0091   12.7772  -78.7483    0.0013    41    42    43    42
    43   -0.0186   -0.0124    0.0835    0.0091   12.7833  -56.2544    0.0013    42    43    44    43
    44   -0.0124   -0.0186    0.0856    0.0091   12.7772  -33.7456    0.0013    43    44    45    44
    45   -0.0044   -0.0219    0.0876    0.0091   12.7772  -11.2517    0.0013    44    45    46    45
    46    0.0044   -0.0219    0.0896    0.0091   12.7772   11.2517    0.0013    45    46    47    46
    47    0.0124   -0.0186    0.0916    0.0091   12.7772   33.7456    0.0013    46    47    48    47
    48    0.0186   -0.0124    0.0936    0.0091   12.7772   56.2544    0.0013    47    48    49    48
    49    0.0219   -0.0044    0.0956    0.0091   12.7833   78.7483    0.0013    48    49    50    49
    50    0.0219    0.0044    0.0976    0.0091   12.7772  101.2517    0.0013    49    50    51    50
    51    0.0186    0.0124    0.0997    0.0091   12.7772  123.7456    0.0013    50    51    52    51
    52    0.0124    0.0186    0.1017    0.0091   12.7772  146.2544    0.0013    51    52    53    52
    53    0.0044    0.0219    0.1037    0.0091   12.7772  168.7483    0.0013    52    53    54    53
    54   -0.0044    0.0219    0.1057    0.0091   12.7772 -168.7483    0.0013    53    54    55    54
    55   -0.0124    0.0186    0.1077    0.0091   12.7833 -146.2544    0.0013    54    55    56    55
    56   -0.0186    0.0124    0.1097    0.0091   12.7772 -123.7456    0.0013    55    56    57    56
    57   -0.0219    0.0044    0.1117    0.0091   12.7772 -101.2517    0.0013    56    57    58    57
    58   -0.0219   -0.0044    0.1137    0.0091   12.7772  -78.7483    0.0013    57    58    59    58
    59   -0.0186   -0.0124    0.1158    0.0091   12.7772  -56.2544    0.0013    58    59    60    59
    60   -0.0124   -0.0186    0.1178    0.0091   12.7772  -33.7456    0.0013    59    60    61    60
    61   -0.0044   -0.0219    0.1198    0.0091   12.7772  -11.2517    0.0013    60    61    62    61
    62    0.0044   -0.0219    0.1218    0.0091   12.7833   11.2517    0.0013    61    62    63    62
    63    0.0124   -0.0186    0.1238    0.0091   12.7772   33.7456    0.0013    62    63    64    63
    64    0.0186   -0.0124    0.1258    0.0091   12.7772   56.2544    0.0013    63    64    65    64
    65    0.0219   -0.0044    0.1278    0.0091   12.7772   78.7483    0.0013    64    65    66    65
    66    0.0219    0.0044    0.1298    0.0091   12.7772  101.2517    0.0013    65    66    67    66
    67    0.0186    0.0124    0.1319    0.0091   12.7772  123.7456    0.0013    66    67    68    67
    68    0.0124    0.0186    0.1339    0.0091   12.7833  146.2544    0.0013    67    68    69    68
    69    0.0044    0.0219    0.1359    0.0091   12.7772  168.7483    0.0013    68    69    70    69
    70   -0.0044    0.0219    0.1379    0.0091   12.7772 -168.7483    0.0013    69    70    71    70
    71   -0.0124    0.0186    0.1399    0.0091   12.7772 -146.2544    0.0013    70    71    72    71
    72   -0.0186    0.0124    0.1419    0.0091   12.7772 -123.7456    0.0013    71    72    73    72
    73   -0.0219    0.0044    0.1439    0.0091   12.7772 -101.2517    0.0013    72    73    74    73
    74   -0.0219   -0.0044    0.1460    0.0091   12.7833  -78.7483    0.0013    73    74    75    74
    75   -0.0186   -0.0124    0.1480    0.0091   12.7772  -56.2544    0.0013    74    75    76    75
    76   -0.0124   -0.0186    0.1500    0.0091   12.7772  -33.7456    0.0013    75    76    77    76
    77   -0.0044   -0.0219    0.1520    0.0091   12.7772  -11.2517    0.0013    76    77    78    77
    78    0.0044   -0.0219    0.1540    0.0091   12.7772   11.2517    0.0013    77    78    79    78
    79    0.0124   -0.0186    0.1560    0.0091   12.7772   33.7456    0.0013    78    79    80    79
    80    0.0186   -0.0124    0.1580    0.0091   12.7772   56.2544    0.0013    79    80    81    80
    81    0.0219   -0.0044    0.1600    0.0091   12.7833   78.7483    0.0013    80    81    82    81
    82    0.0219    0.0044    0.1621    0.0091   12.7772  101.2517    0.0013    81    82    83    82
    83    0.0186    0.0124    0.1641    0.0091   12.7772  123.7456    0.0013    82    83    84    83
    84    0.0124    0.0186    0.1661    0.0091   12.7772  146.2544    0.0013    83    84    85    84
    85    0.0044    0.0219    0.1681    0.0091   12.7772  168.7483    0.0013    84    85    86    85
    86   -0.0044    0.0219    0.1701    0.0091   12.7772 -168.7483    0.0013    85    86    87    86
    87   -0.0124    0.0186    0.1721    0.0091   12.7833 -146.2544    0.0013    86    87    88    87
    88   -0.0186    0.0124    0.1741    0.0091   12.7772 -123.7456    0.0013    87    88    89    88
    89   -0.0219    0.0044    0.1762    0.0091   12.7772 -101.2517    0.0013    88    89    90    89
    90   -0.0219   -0.0044    0.1782    0.0091   12.7772  -78.7483    0.0013    89    90    91    90
    91   -0.0186   -0.0124    0.1802    0.0091   12.7772  -56.2544    0.0013    90    91    92    91
    92   -0.0124   -0.0186    0.1822    0.0091   12.7772  -33.7456    0.0013    91    92    93    92
    93   -0.0044   -0.0219    0.1842    0.0091   12.7833  -11.2517    0.0013    92    93    94    93
    94    0.0044   -0.0219    0.1862    0.0091   12.7772   11.2517    0.0013    93    94    95    94
    95    0.0124   -0.0186    0.1882    0.0091   12.7772   33.7456    0.0013    94    95    96    95
    96    0.0186   -0.0124    0.1902    0.0091   12.7772   56.2544    0.0013    95    96    97    96
    97    0.0219   -0.0044    0.1923    0.0091   12.7772   78.7483    0.0013    96    97    98    97
    98    0.0219    0.0044    0.1943    0.0091   12.7772  101.2517    0.0013    97    98    99    98
    99    0.0186    0.0124    0.1963    0.0091   12.7772  123.7456    0.0013    98    99   100    99
   100    0.0124    0.0186    0.1983    0.0091   12.7833  146.2544    0.0013    99   100   101   100
   101    0.0044    0.0219    0.2003    0.0091   12.7772  168.7483    0.0013   100   101   102   101
   102   -0.0044    0.0219    0.2023    0.0091   12.7772 -168.7483    0.0013   101   102   103   102
   103   -0.0124    0.0186    0.2043    0.0091   12.7772 -146.2544    0.0013   102   103   104   103
   104   -0.0186    0.0124    0.2063    0.0091   12.7772 -123.7456    0.0013   103   104   105   104
   105   -0.0219    0.0044    0.2084    0.0091   12.7772 -101.2517    0.0013   104   105   106   105
   106   -0.0219   -0.0044    0.2104    0.0091   12.7833  -78.7483    0.0013   105   106   107   106
   107   -0.0186   -0.0124    0.2124    0.0091   12.7772  -56.2544    0.0013   106   107   108   107
   108   -0.0124   -0.0186    0.2144    0.0091   12.7772  -33.7456    0.0013   107   108   109   108
   109   -0.0044   -0.0219    0.2164    0.0091   12.7772  -11.2517    0.0013   108   109   110   109
   110    0.0044   -0.0219    0.2184    0.0091   12.7772   11.2517    0.0013   109   110   111   110
   111    0.0124   -0.0186    0.2204    0.0091   12.7772   33.7456    0.0013   110   111   112   111
   112    0.0186   -0.0124    0.2225    0.0091   12.7833   56.2544    0.0013   111   112   113   112
   113    0.0219   -0.0044    0.2245    0.0091   12.7772   78.7483    0.0013   112   113   114   113
   114    0.0219    0.0044    0.2265    0.0091   12.7772  101.2517    0.0013   113   114   115   114
   115    0.0186    0.0124    0.2285    0.0091   12.7772  123.7456    0.0013   114   115   116   115
   116    0.0124    0.0186    0.2305    0.0091   12.7772  146.2544    0.0013   115   116   117   116
   117    0.0044    0.0219    0.2325    0.0091   12.7772  168.7483    0.0013   116   117   118   117
   118   -0.0044    0.0219    0.2345    0.0091   12.7772 -168.7483    0.0013   117   118   119   118
   119   -0.0124    0.0186    0.2365    0.0091   12.7833 -146.2544    0.0013   118   119   120   119
   120   -0.0186    0.0124    0.2386    0.0091   12.7772 -123.7456    0.0013   119   120   121   120
   121   -0.0219    0.0044    0.2406    0.0091   12.7772 -101.2517    0.0013   120   121   122   121
   122   -0.0219   -0.0044    0.2426    0.0091   12.7772  -78.7483    0.0013   121   122   123   122
   123   -0.0186   -0.0124    0.2446    0.0091   12.7772  -56.2544    0.0013   122   123   124   123
   124   -0.0124   -0.0186    0.2466    0.0091   12.7772  -33.7456    0.0013   123   124   125   124
   125   -0.0044   -0.0219    0.2486    0.0091   12.7833  -11.2517    0.0013   124   125   126   125
   126    0.0044   -0.0219    0.2506    0.0091   12.7772   11.2517    0.0013   125   126   127   126
   127    0.0124   -0.0186    0.2527    0.0091   12.7772   33.7456    0.0013   126   127   128   127
   128    0.0186   -0.0124    0.2547    0.0091   12.7772   56.2544    0.0013   127   128   129   128
   129    0.0219   -0.0044    0.2567    0.0091   12.7772   78.7483    0.0013   128   129   130   129
   130    0.0219    0.0044    0.2587    0.0091   12.7772  101.2517    0.0013   129   130   131   130
   131    0.0186    0.0124    0.2607    0.0091   12.7833  123.7456    0.0013   130   131   132   131
   132    0.0124    0.0186    0.2627    0.0091   12.7772  146.2544    0.0013   131   132   133   132
   133    0.0044    0.0219    0.2647    0.0091   12.7772  168.7483    0.0013   132   133   134   133
   134   -0.0044    0.0219    0.2667    0.0091   12.7772 -168.7483    0.0013   133   134   135   134
   135   -0.0124    0.0186    0.2688    0.0091   12.7772 -146.2544    0.0013   134   135   136   135
   136   -0.0186    0.0124    0.2708    0.0091   12.7772 -123.7456    0.0013   135   136   137   136
   137   -0.0219    0.0044    0.2728    0.0091   12.7772 -101.2517    0.0013   136   137   138   137
   138   -0.0219   -0.0044    0.2748    0.0091   12.7833  -78.7483    0.0013   137   138   139   138
   139   -0.0186   -0.0124    0.2768    0.0091   12.7772  -56.2544    0.0013   138   139   140   139
   140   -0.0124   -0.0186    0.2788    0.0091   12.7772  -33.7456    0.0013   139   140   141   140
   141   -0.0044   -0.0219    0.2808    0.0091   12.7772  -11.2517    0.0013   140   141   142   141
   142    0.0044   -0.0219    0.2828    0.0091   12.7772   11.2517    0.0013   141   142   143   142
   143    0.0124   -0.0186    0.2849    0.0091   12.7772   33.7456    0.0013   142   143   144   143
   144    0.0186   -0.0124    0.2869    0.0091   12.7833   56.2544    0.0013   143   144   145   144
   145    0.0219   -0.0044    0.2889    0.0091   12.7772   78.7483    0.0013   144   145   146   145
   146    0.0219    0.0044    0.2909    0.0091   12.7772  101.2517    0.0013   145   146   147   146
   147    0.0186    0.0124    0.2929    0.0091   12.7772  123.7456    0.0013   146   147   148   147
   148    0.0124    0.0186    0.2949    0.0091   12.7772  146.2544    0.0013   147   148   149   148
   149    0.0044    0.0219    0.2969    0.0091   12.7772  168.7483    0.0013   148   149   150   149
   150   -0.0044    0.0219    0.2990    0.0091   12.7833 -168.7483    0.0013   149   150   151   150
   151   -0.0124    0.0186    0.3010    0.0091   12.7772 -146.2544    0.0013   150   151   152   151
   152   -0.0186    0.0124    0.3030    0.0091   12.7772 -123.7456    0.0013   151   152   153   152
   153   -0.0219    0.0044    0.3050    0.0091   12.7772 -101.2517    0.0013   152   153   154   153
   154   -0.0219   -0.0044    0.3070    0.0091   12.7772  -78.7483    0.0013   153   154   155   154
   155   -0.0186   -0.0124    0.3090    0.0091   12.7772  -56.2544    0.0013   154   155   156   155
   156   -0.0124   -0.0186    0.3110    0.0091   12.7772  -33.7456    0.0013   155   156   157   156
   157   -0.0044   -0.0219    0.3130    0.0091   12.7833  -11.2517    0.0013   156   157   158   157
   158    0.0044   -0.0219    0.3151    0.0091   12.7772   11.2517    0.0013   157   158   159   158
   159    0.0124   -0.0186    0.3171    0.0091   12.7772   33.7456    0.0013   158   159   160   159
   160    0.0186   -0.0124    0.3191    0.0091   12.7772   56.2544    0.0013   159   160   161   160
   161    0.0219   -0.0044    0.3211    0.0091   12.7772   78.7483    0.0013   160   161   162   161
   162    0.0219    0.0044    0.3231    0.0091   12.7772  101.2517    0.0013   161   162   163   162
   163    0.0186    0.0124    0.3251    0.0091   12.7833  123.7456    0.0013   162   163   164   163
   164    0.0124    0.0186    0.3271    0.0091   12.7772  146.2544    0.0013   163   164   165   164
   165    0.0044    0.0219    0.3292    0.0091   12.7772  168.7483    0.0013   164   165   166   165
   166   -0.0044    0.0219    0.3312    0.0091   12.7772 -168.7483    0.0013   165   166   167   166
   167   -0.0124    0.0186    0.3332    0.0091   12.7772 -146.2544    0.0013   166   167   168   167
   168   -0.0186    0.0124    0.3352    0.0091   12.7772 -123.7456    0.0013   167   168   169   168
   169   -0.0219    0.0044    0.3372    0.0091   12.7833 -101.2517    0.0013   168   169   170   169
   170   -0.0219   -0.0044    0.3392    0.0091   12.7772  -78.7483    0.0013   169   170   171   170
   171   -0.0186   -0.0124    0.3412    0.0091   12.7772  -56.2544    0.0013   170   171   172   171
   172   -0.0124   -0.0186    0.3432    0.0091   12.7772  -33.7456    0.0013   171   172   173   172
   173   -0.0044   -0.0219    0.3453    0.0091   12.7772  -11.2517    0.0013   172   173   174   173
   174    0.0044   -0.0219    0.3473    0.0091   12.7772   11.2517    0.0013   173   174   175   174
   175    0.0124   -0.0186    0.3493    0.0091   12.7772   33.7456    0.0013   174   175   176   175
   176    0.0186   -0.0124    0.3513    0.0091   12.7833   56.2544    0.0013   175   176   177   176
   177    0.0219   -0.0044    0.3533    0.0091   12.7772   78.7483    0.0013   176   177   178   177
   178    0.0219    0.0044    0.3553    0.0091   12.7772  101.2517    0.0013   177   178   179   178
   179    0.0186    0.0124    0.3573    0.0091   12.7772  123.7456    0.0013   178   179   180   179
   180    0.0124    0.0186    0.3593    0.0091   12.7772  146.2544    0.0013   179   180   181   180
   181    0.0044    0.0219    0.3614    0.0091   12.7772  168.7483    0.0013   180   181   182   181
   182   -0.0044    0.0219    0.3634    0.0091   12.7833 -168.7483    0.0013   181   182   183   182
   183   -0.0124    0.0186    0.3654    0.0091   12.7772 -146.2544    0.0013   182   183   184   183
   184   -0.0186    0.0124    0.3674    0.0091   12.7772 -123.7456    0.0013   183   184   185   184
   185   -0.0219    0.0044    0.3694    0.0091   12.7772 -101.2517    0.0013   184   185   186   185
   186   -0.0219   -0.0044    0.3714    0.0091   12.7772  -78.7483    0.0013   185   186   187   186
   187   -0.0186   -0.0124    0.3734    0.0091   12.7772  -56.2544    0.0013   186   187   188   187
   188   -0.0124   -0.0186    0.3755    0.0091   12.7833  -33.7456    0.0013   187   188   189   188
   189   -0.0044   -0.0219    0.3775    0.0091   12.7772  -11.2517    0.0013   188   189   190   189
   190    0.0044   -0.0219    0.3795    0.0091   12.7772   11.2517    0.0013   189   190   191   190
   191    0.0124   -0.0186    0.3815    0.0091   12.7772   33.7456    0.0013   190   191   192   191
   192    0.0186   -0.0124    0.3835    0.0091   12.7772   56.2544    0.0013   191   192   193   192
   193    0.0219   -0.0044    0.3855    0.0091   12.7772   78.7483    0.0013   192   193   194   193
   194    0.0219    0.0044    0.3875    0.0091   12.7772  101.2517    0.0013   193   194   195   194
   195    0.0186    0.0124    0.3895    0.0091   12.7833  123.7456    0.0013   194   195   196   195
   196    0.0124    0.0186    0.3916    0.0091   12.7772  146.2544    0.0013   195   196   197   196
   197    0.0044    0.0219    0.3936    0.0091   12.7772  168.7483    0.0013   196   197   198   197
   198   -0.0044    0.0219    0.3956    0.0091   12.7772 -168.7483    0.0013   197   198   199   198
   199   -0.0124    0.0186    0.3976    0.0091   12.7772 -146.2544    0.0013   198   199   200   199
   200   -0.0186    0.0124    0.3996    0.0091   12.7772 -123.7456    0.0013   199   200   201   200
   201   -0.0219    0.0044    0.4016    0.0091   12.7833 -101.2517    0.0013   200   201   202   201
   202   -0.0219   -0.0044    0.4036    0.0091   12.7772  -78.7483    0.0013   201   202   203   202
   203   -0.0186   -0.0124    0.4057    0.0091   12.7772  -56.2544    0.0013   202   203   204   203
   204   -0.0124   -0.0186    0.4077    0.0091   12.7772  -33.7456    0.0013   203   204   205   204
   205   -0.0044   -0.0219    0.4097    0.0091   12.7772  -11.2517    0.0013   204   205   206   205
   206    0.0044   -0.0219    0.4117    0.0091   12.7772   11.2517    0.0013   205   206   207   206
   207    0.0124   -0.0186    0.4137    0.0091   12.7833   33.7456    0.0013   206   207   208   207
   208    0.0186   -0.0124    0.4157    0.0091   12.7772   56.2544    0.0013   207   208   209   208
   209    0.0219   -0.0044    0.4177    0.0091   12.7772   78.7483    0.0013   208   209   210   209
   210    0.0219    0.0044    0.4197    0.0091   12.7772  101.2517    0.0013   209   210   211   210
   211    0.0186    0.0124    0.4218    0.0091   12.7772  123.7456    0.0013   210   211   212   211
   212    0.0124    0.0186    0.4238    0.0091   12.7772  146.2544    0.0013   211   212   213   212
   213    0.0044    0.0219    0.4258    0.0091   12.7772  168.7483    0.0013   212   213   214   213
   214   -0.0044    0.0219    0.4278    0.0091   12.7833 -168.7483    0.0013   213   214   215   214
   215   -0.0124    0.0186    0.4298    0.0091   12.7772 -146.2544    0.0013   214   215   216   215
   216   -0.0186    0.0124    0.4318    0.0091   12.7772 -123.7456    0.0013   215   216   217   216
   217   -0.0219    0.0044    0.4338    0.0091   12.7772 -101.2517    0.0013   216   217   218   217
   218   -0.0219   -0.0044    0.4358    0.0091   12.7772  -78.7483    0.0013   217   218   219   218
   219   -0.0186   -0.0124    0.4379    0.0091   12.7772  -56.2544    0.0013   218   219   220   219
   220   -0.0124   -0.0186    0.4399    0.0091   12.7833  -33.7456    0.0013   219   220   221   220
   221   -0.0044   -0.0219    0.4419    0.0091   12.7772  -11.2517    0.0013   220   221   222   221
   222    0.0044   -0.0219    0.4439    0.0091   12.7772   11.2517    0.0013   221   222   223   222
   223    0.0124   -0.0186    0.4459    0.0091   12.7772   33.7456    0.0013   222   223   224   223
   224    0.0186   -0.0124    0.4479    0.0091   12.7772   56.2544    0.0013   223   224   225   224
   225    0.0219   -0.0044    0.4499    0.0091   12.7772   78.7483    0.0013   224   225   226   225
   226    0.0219    0.0044    0.4520    0.0091   12.7833  101.2517    0.0013   225   226   227   226
   227    0.0186    0.0124    0.4540    0.0091   12.7772  123.7456    0.0013   226   227   228   227
   228    0.0124    0.0186    0.4560    0.0091   12.7772  146.2544    0.0013   227   228   229   228
   229    0.0044    0.0219    0.4580    0.0091   12.7772  168.7483    0.0013   228   229   230   229
   230   -0.0044    0.0219    0.4600    0.0091   12.7772 -168.7483    0.0013   229   230   231   230
   231   -0.0124    0.0186    0.4620    0.0091   12.7772 -146.2544    0.0013   230   231   232   231
   232   -0.0186    0.0124    0.4640    0.0091   12.7772 -123.7456    0.0013   231   232   233   232
   233   -0.0219    0.0044    0.4660    0.0091   12.7833 -101.2517    0.0013   232   233   234   233
   234   -0.0219   -0.0044    0.4681    0.0091   12.7772  -78.7483    0.0013   233   234   235   234
   235   -0.0186   -0.0124    0.4701    0.0091   12.7772  -56.2544    0.0013   234   235   236   235
   236   -0.0124   -0.0186    0.4721    0.0091   12.7772  -33.7456    0.0013   235   236   237   236
   237   -0.0044   -0.0219    0.4741    0.0091   12.7772  -11.2517    0.0013   236   237   238   237
   238    0.0044   -0.0219    0.4761    0.0091   12.7772   11.2517    0.0013   237   238   239   238
   239    0.0124   -0.0186    0.4781    0.0091   12.7833   33.7456    0.0013   238   239   240   239
   240    0.0186   -0.0124    0.4801    0.0091   12.7772   56.2544    0.0013   239   240   241   240
   241    0.0219   -0.0044    0.4822    0.0091   12.7772   78.7483    0.0013   240   241   242   241
   242    0.0219    0.0044    0.4842    0.0091   12.7772  101.2517    0.0013   241   242   243   242
   243    0.0186    0.0124    0.4862    0.0091   12.7772  123.7456    0.0013   242   243   244   243
   244    0.0124    0.0186    0.4882    0.0091   12.7772  146.2544    0.0013   243   244   245   244
   245    0.0044    0.0219    0.4902    0.0091   12.7833  168.7483    0.0013   244   245   246   245
   246   -0.0044    0.0219    0.4922    0.0091   12.7772 -168.7483    0.0013   245   246   247   246
   247   -0.0124    0.0186    0.4942    0.0091   12.7772 -146.2544    0.0013   246   247   248   247
   248   -0.0186    0.0124    0.4962    0.0091   12.7772 -123.7456    0.0013   247   248   249   248
   249   -0.0219    0.0044    0.4983    0.0091   12.7772 -101.2517    0.0013   248   249   250   249
   250   -0.0219   -0.0044    0.5003    0.0091   12.7772  -78.7483    0.0013   249   250   251   250
   251   -0.0186   -0.0124    0.5023    0.0091   12.7772  -56.2544    0.0013   250   251   252   251
   252   -0.0124   -0.0186    0.5043    0.0091   12.7833  -33.7456    0.0013   251   252   253   252
   253   -0.0044   -0.0219    0.5063    0.0091   12.7772  -11.2517    0.0013   252   253   254   253
   254    0.0044   -0.0219    0.5083    0.0091   12.7772   11.2517    0.0013   253   254   255   254
   255    0.0124   -0.0186    0.5103    0.0091   12.7772   33.7456    0.0013   254   255   256   255
   256    0.0186   -0.0124    0.5123    0.0091   12.7772   56.2544    0.0013   255   256   257   256
   257    0.0219   -0.0044    0.5144    0.0091   12.7772   78.7483    0.0013   256   257   258   257
   258    0.0219    0.0044    0.5164    0.0091   12.7833  101.2517    0.0013   257   258   259   258
   259    0.0186    0.0124    0.5184    0.0091   12.7772  123.7456    0.0013   258   259   260   259
   260    0.0124    0.0186    0.5204    0.0091   12.7772  146.2544    0.0013   259   260   261   260
   261    0.0044    0.0219    0.5224    0.0091   12.7772  168.7483    0.0013   260   261   262   261
   262   -0.0044    0.0219    0.5244    0.0091   12.7772 -168.7483    0.0013   261   262   263   262
   263   -0.0124    0.0186    0.5264    0.0091   12.7772 -146.2544    0.0013   262   263   264   263
   264   -0.0186    0.0124    0.5285    0.0091   12.7833 -123.7456    0.0013   263   264   265   264
   265   -0.0219    0.0044    0.5305    0.0091   12.7772 -101.2517    0.0013   264   265   266   265
   266   -0.0219   -0.0044    0.5325    0.0091   12.7772  -78.7483    0.0013   265   266   267   266
   267   -0.0186   -0.0124    0.5345    0.0091   12.7772  -56.2544    0.0013   266   267   268   267
   268   -0.0124   -0.0186    0.5365    0.0091   12.7772  -33.7456    0.0013   267   268   269   268
   269   -0.0044   -0.0219    0.5385    0.0091   12.7772  -11.2517    0.0013   268   269   270   269
   270    0.0044   -0.0219    0.5405    0.0091   12.7772   11.2517    0.0013   269   270   271   270
   271    0.0124   -0.0186    0.5425    0.0091   12.7833   33.7456    0.0013   270   271   272   271
   272    0.0186   -0.0124    0.5446    0.0091   12.7772   56.2544    0.0013   271   272   273   272
   273    0.0219   -0.0044    0.5466    0.0091   12.7772   78.7483    0.0013   272   273   274   273
   274    0.0219    0.0044    0.5486    0.0091   12.7772  101.2517    0.0013   273   274   275   274
   275    0.0186    0.0124    0.5506    0.0091   12.7772  123.7456    0.0013   274   275   276   275
   276    0.0124    0.0186    0.5526    0.0091   12.7772  146.2544    0.0013   275   276   277   276
   277    0.0044    0.0219    0.5546    0.0091   12.7833  168.7483    0.0013   276   277   278   277
   278   -0.0044    0.0219    0.5566    0.0091   12.7772 -168.7483    0.0013   277   278   279   278
   279   -0.0124    0.0186    0.5587    0.0091   12.7772 -146.2544    0.0013   278   279   280   279
   280   -0.0186    0.0124    0.5607    0.0091   12.7772 -123.7456    0.0013   279   280   281   280
   281   -0.0219    0.0044    0.5627    0.0091   12.7772 -101.2517    0.0013   280   281   282   281
   282   -0.0219   -0.0044    0.5647    0.0091   12.7772  -78.7483    0.0013   281   282   283   282
   283   -0.0186   -0.0124    0.5667    0.0091   12.7833  -56.2544    0.0013   282   283   284   283
   284   -0.0124   -0.0186    0.5687    0.0091   12.7772  -33.7456    0.0013   283   284   285   284
   285   -0.0044   -0.0219    0.5707    0.0091   12.7772  -11.2517    0.0013   284   285   286   285
   286    0.0044   -0.0219    0.5727    0.0091   12.7772   11.2517    0.0013   285   286   287   286
   287    0.0124   -0.0186    0.5748    0.0091   12.7772   33.7456    0.0013   286   287   288   287
   288    0.0186   -0.0124    0.5768    0.0091   12.7772   56.2544    0.0013   287   288   289   288
   289    0.0219   -0.0044    0.5788    0.0091   12.7772   78.7483    0.0013   288   289   290   289
   290    0.0219    0.0044    0.5808    0.0091   12.7833  101.2517    0.0013   289   290   291   290
   291    0.0186    0.0124    0.5828    0.0091   12.7772  123.7456    0.0013   290   291   292   291
   292    0.0124    0.0186    0.5848    0.0091   12.7772  146.2544    0.0013   291   292   293   292
   293    0.0044    0.0219    0.5868    0.0091   12.7772  168.7483    0.0013   292   293   294   293
   294   -0.0044    0.0219    0.5888    0.0091   12.7772 -168.7483    0.0013   293   294   295   294
   295   -0.0124    0.0186    0.5909    0.0091   12.7772 -146.2544    0.0013   294   295   296   295
   296   -0.0186    0.0124    0.5929    0.0091   12.7833 -123.7456    0.0013   295   296   297   296
   297   -0.0219    0.0044    0.5949    0.0091   12.7772 -101.2517    0.0013   296   297   298   297
   298   -0.0219   -0.0044    0.5969    0.0091   12.7772  -78.7483    0.0013   297   298   299   298
   299   -0.0186   -0.0124    0.5989    0.0091   12.7772  -56.2544    0.0013   298   299   300   299
   300   -0.0124   -0.0186    0.6009    0.0091   12.7772  -33.7456    0.0013   299   300   301   300
   301   -0.0044   -0.0219    0.6029    0.0091   12.7772  -11.2517    0.0013   300   301   302   301
   302    0.0044   -0.0219    0.6050    0.0091   12.7833   11.2517    0.0013   301   302   303   302
   303    0.0124   -0.0186    0.6070    0.0091   12.7772   33.7456    0.0013   302   303   304   303
   304    0.0186   -0.0124    0.6090    0.0091   12.7772   56.2544    0.0013   303   304   305   304
   305    0.0219   -0.0044    0.6110    0.0091   12.7772   78.7483    0.0013   304   305   306   305
   306    0.0114    0.0000    0.6120    0.0227    0.0000  180.0000    0.0013   305   306     0   306



  DATA CARD No:   1 XQ   0     0     0     0  0.00000E+00  0.00000E+00  0.00000E+00  0.00000E+00  0.00000E+00  0.00000E+00


                               --------- FREQUENCY --------
                                FREQUENCY : 2.9980E+02 MHz
                                WAVELENGTH: 1.0000E+00 Mtr

                        APPROXIMATE INTEGRATION EMPLOYED FOR SEGMENTS 
                        THAT ARE MORE THAN 1.000 WAVELENGTHS APART


                          ------ STRUCTURE IMPEDANCE LOADING ------
                                 THIS STRUCTURE IS NOT LOADED


                            -------- ANTENNA ENVIRONMENT --------
                            FREE SPACE


                             ---------- MATRIX TIMING ----------
                               FILL: 550 msec  FACTOR: 620 msec


                           -------- CURRENTS AND LOCATION --------
                                  DISTANCES IN WAVELENGTHS

   SEG  TAG    COORDINATES OF SEGM CENTER     SEGM    ------------- CURRENT (AMPS) -------------
   No:  No:       X         Y         Z      LENGTH     REAL      IMAGINARY    MAGN        PHASE
     1    1    0.0114    0.0000    0.0000   0.02275  0.0000E+00  0.0000E+00  0.0000E+00    0.000
     2    2    0.0219    0.0044    0.0010   0.00910  0.0000E+00  0.0000E+00  0.0000E+00    0.000
     3    3    0.0186    0.0124    0.0030   0.00910  0.0000E+00  0.0000E+00  0.0000E+00    0.000
     4    4    0.0124    0.0186    0.0050   0.00910  0.0000E+00  0.0000E+00  0.0000E+00    0.000
     5    5    0.0044    0.0219    0.0070   0.00910  0.0000E+00  0.0000E+00  0.0000E+00    0.000
     6    6   -0.0044    0.0219    0.0091   0.00910  0.0000E+00  0.0000E+00  0.0000E+00    0.000
     7    7   -0.0124    0.0186    0.0111   0.00910  0.0000E+00  0.0000E+00  0.0000E+00    0.000
     8    8   -0.0186    0.0124    0.0131   0.00910  0.0000E+00  0.0000E+00  0.0000E+00    0.000
     9    9   -0.0219    0.0044    0.0151   0.00910  0.0000E+00  0.0000E+00  0.0000E+00    0.000
    10   10   -0.0219   -0.0044    0.0171   0.00910  0.0000E+00  0.0000E+00  0.0000E+00    0.000
    11   11   -0.0186   -0.0124    0.0191   0.00910  0.0000E+00  0.0000E+00  0.0000E+00    0.000
    12   12   -0.0124   -0.0186    0.0211   0.00910  0.0000E+00  0.0000E+00  0.0000E+00    0.000
    13   13   -0.0044   -0.0219    0.0232   0.00910  0.0000E+00  0.0000E+00  0.0000E+00    0.000
    14   14    0.0044   -0.0219    0.0252   0.00910  0.0000E+00  0.0000E+00  0.0000E+00    0.000
    15   15    0.0124   -0.0186    0.0272   0.00910  0.0000E+00  0.0000E+00  0.0000E+00    0.000
    16   16    0.0186   -0.0124    0.0292   0.00910  0.0000E+00  0.0000E+00  0.0000E+00    0.000
    17   17    0.0219   -0.0044    0.0312   0.00910  0.0000E+00  0.0000E+00  0.0000E+00    0.000
    18   18    0.0219    0.0044    0.0332   0.00910  0.0000E+00  0.0000E+00  0.0000E+00    0.000
    19   19    0.0186    0.0124    0.0352   0.00910  0.0000E+00  0.0000E+00  0.0000E+00    0.000
    20   20    0.0124    0.0186    0.0372   0.00910  0.0000E+00  0.0000E+00  0.0000E+00    0.000
    21   21    0.0044    0.0219    0.0393   0.00910  0.0000E+00  0.0000E+00  0.0000E+00    0.000
    22   22   -0.0044    0.0219    0.0413   0.00910  0.0000E+00  0.0000E+00  0.0000E+00    0.000
    23   23   -0.0124    0.0186    0.0433   0.00910  0.0000E+00  0.0000E+00  0.0000E+00    0.000
    24   24   -0.0186    0.0124    0.0453   0.00910  0.0000E+00  0.0000E+00  0.0000E+00    0.000
    25   25   -0.0219    0.0044    0.0473   0.00910  0.0000E+00  0.0000E+00  0.0000E+00    0.000
    26   26   -0.0219   -0.0044    0.0493   0.00910  0.0000E+00  0.0000E+00  0.0000E+00    0.000
    27   27   -0.0186   -0.0124    0.0513   0.00910  0.0000E+00  0.0000E+00  0.0000E+00    0.000
    28   28   -0.0124   -0.0186    0.0533   0.00910  0.0000E+00  0.0000E+00  0.0000E+00    0.000
    29   29   -0.0044   -0.0219    0.0554   0.00910  0.0000E+00  0.0000E+00  0.0000E+00    0.000
    30   30    0.0044   -0.0219    0.0574   0.00910  0.0000E+00  0.0000E+00  0.0000E+00    0.000
    31   31    0.0124   -0.0186    0.0594   0.00910  0.0000E+00  0.0000E+00  0.0000E+00    0.000
    32   32    0.0186   -0.0124    0.0614   0.00910  0.0000E+00  0.0000E+00  0.0000E+00    0.000
    33   33    0.0219   -0.0044    0.0634   0.00910  0.0000E+00  0.0000E+00  0.0000E+00    0.000
    34   34    0.0219    0.0044    0.0654   0.00910  0.0000E+00  0.0000E+00  0.0000E+00    0.000
    35   35    0.0186    0.0124    0.0674   0.00910  0.0000E+00  0.0000E+00  0.0000E+00    0.000
    36   36    0.0124    0.0186    0.0695   0.00910  0.0000E+00  0.0000E+00  0.0000E+00    0.000
    37   37    0.0044    0.0219    0.0715   0.00910  0.0000E+00  0.0000E+00  0.0000E+00    0.000
    38   38   -0.0044    0.0219    0.0735   0.00910  0.0000E+00  0.0000E+00  0.0000E+00    0.000
    39   39   -0.0124    0.0186    0.0755   0.00910  0.0000E+00  0.0000E+00  0.0000E+00    0.000
    40   40   -0.0186    0.0124    0.0775   0.00910  0.0000E+00  0.0000E+00  0.0000E+00    0.000
    41   41   -0.0219    0.0044    0.0795   0.00910  0.0000E+00  0.0000E+00  0.0000E+00    0.000
    42   42   -0.0219   -0.0044    0.0815   0.00910  0.0000E+00  0.0000E+00  0.0000E+00    0.000
    43   43   -0.0186   -0.0124    0.0835   0.00910  0.0000E+00  0.0000E+00  0.0000E+00    0.000
    44   44   -0.0124   -0.0186    0.0856   0.00910  0.0000E+00  0.0000E+00  0.0000E+00    0.000
    45   45   -0.0044   -0.0219    0.0876   0.00910  0.0000E+00  0.0000E+00  0.0000E+00    0.000
    46   46    0.0044   -0.0219    0.0896   0.00910  0.0000E+00  0.0000E+00  0.0000E+00    0.000
    47   47    0.0124   -0.0186    0.0916   0.00910  0.0000E+00  0.0000E+00  0.0000E+00    0.000
    48   48    0.0186   -0.0124    0.0936   0.00910  0.0000E+00  0.0000E+00  0.0000E+00    0.000
    49   49    0.0219   -0.0044    0.0956   0.00910  0.0000E+00  0.0000E+00  0.0000E+00    0.000
    50   50    0.0219    0.0044    0.0976   0.00910  0.0000E+00  0.0000E+00  0.0000E+00    0.000
    51   51    0.0186    0.0124    0.0997   0.00910  0.0000E+00  0.0000E+00  0.0000E+00    0.000
    52   52    0.0124    0.0186    0.1017   0.00910  0.0000E+00  0.0000E+00  0.0000E+00    0.000
    53   53    0.0044    0.0219    0.1037   0.00910  0.0000E+00  0.0000E+00  0.0000E+00    0.000
    54   54   -0.0044    0.0219    0.1057   0.00910  0.0000E+00  0.0000E+00  0.0000E+00    0.000
    55   55   -0.0124    0.0186    0.1077   0.00910  0.0000E+00  0.0000E+00  0.0000E+00    0.000
    56   56   -0.0186    0.0124    0.1097   0.00910  0.0000E+00  0.0000E+00  0.0000E+00    0.000
    57   57   -0.0219    0.0044    0.1117   0.00910  0.0000E+00  0.0000E+00  0.0000E+00    0.000
    58   58   -0.0219   -0.0044    0.1137   0.00910  0.0000E+00  0.0000E+00  0.0000E+00    0.000
    59   59   -0.0186   -0.0124    0.1158   0.00910  0.0000E+00  0.0000E+00  0.0000E+00    0.000
    60   60   -0.0124   -0.0186    0.1178   0.00910  0.0000E+00  0.0000E+00  0.0000E+00    0.000
    61   61   -0.0044   -0.0219    0.1198   0.00910  0.0000E+00  0.0000E+00  0.0000E+00    0.000
    62   62    0.0044   -0.0219    0.1218   0.00910  0.0000E+00  0.0000E+00  0.0000E+00    0.000
    63   63    0.0124   -0.0186    0.1238   0.00910  0.0000E+00  0.0000E+00  0.0000E+00    0.000
    64   64    0.0186   -0.0124    0.1258   0.00910  0.0000E+00  0.0000E+00  0.0000E+00    0.000
    65   65    0.0219   -0.0044    0.1278   0.00910  0.0000E+00  0.0000E+00  0.0000E+00    0.000
    66   66    0.0219    0.0044    0.1298   0.00910  0.0000E+00  0.0000E+00  0.0000E+00    0.000
    67   67    0.0186    0.0124    0.1319   0.00910  0.0000E+00  0.0000E+00  0.0000E+00    0.000
    68   68    0.0124    0.0186    0.1339   0.00910  0.0000E+00  0.0000E+00  0.0000E+00    0.000
    69   69    0.0044    0.0219    0.1359   0.00910  0.0000E+00  0.0000E+00  0.0000E+00    0.000
    70   70   -0.0044    0.0219    0.1379   0.00910  0.0000E+00  0.0000E+00  0.0000E+00    0.000
    71   71   -0.0124    0.0186    0.1399   0.00910  0.0000E+00  0.0000E+00  0.0000E+00    0.000
    72   72   -0.0186    0.0124    0.1419   0.00910  0.0000E+00  0.0000E+00  0.0000E+00    0.000
    73   73   -0.0219    0.0044    0.1439   0.00910  0.0000E+00  0.0000E+00  0.0000E+00    0.000
    74   74   -0.0219   -0.0044    0.1460   0.00910  0.0000E+00  0.0000E+00  0.0000E+00    0.000
    75   75   -0.0186   -0.0124    0.1480   0.00910  0.0000E+00  0.0000E+00  0.0000E+00    0.000
    76   76   -0.0124   -0.0186    0.1500   0.00910  0.0000E+00  0.0000E+00  0.0000E+00    0.000
    77   77   -0.0044   -0.0219    0.1520   0.00910  0.0000E+00  0.0000E+00  0.0000E+00    0.000
    78   78    0.0044   -0.0219    0.1540   0.00910  0.0000E+00  0.0000E+00  0.0000E+00    0.000
    79   79    0.0124   -0.0186    0.1560   0.00910  0.0000E+00  0.0000E+00  0.0000E+00    0.000
    80   80    0.0186   -0.0124    0.1580   0.00910  0.0000E+00  0.0000E+00  0.0000E+00    0.000
    81   81    0.0219   -0.0044    0.1600   0.00910  0.0000E+00  0.0000E+00  0.0000E+00    0.000
    82   82    0.0219    0.0044    0.1621   0.00910  0.0000E+00  0.0000E+00  0.0000E+00    0.000
    83   83    0.0186    0.0124    0.1641   0.00910  0.0000E+00  0.0000E+00  0.0000E+00    0.000
    84   84    0.0124    0.0186    0.1661   0.00910  0.0000E+00  0.0000E+00  0.0000E+00    0.000
    85   85    0.0044    0.0219    0.1681   0.00910  0.0000E+00  0.0000E+00  0.0000E+00    0.000
    86   86   -0.0044    0.0219    0.1701   0.00910  0.0000E+00  0.0000E+00  0.0000E+00    0.000
    87   87   -0.0124    0.0186    0.1721   0.00910  0.0000E+00  0.0000E+00  0.0000E+00    0.000
    88   88   -0.0186    0.0124    0.1741   0.00910  0.0000E+00  0.0000E+00  0.0000E+00    0.000
    89   89   -0.0219    0.0044    0.1762   0.00910  0.0000E+00  0.0000E+00  0.0000E+00    0.000
    90   90   -0.0219   -0.0044    0.1782   0.00910  0.0000E+00  0.0000E+00  0.0000E+00    0.000
    91   91   -0.0186   -0.0124    0.1802   0.00910  0.0000E+00  0.0000E+00  0.0000E+00    0.000
    92   92   -0.0124   -0.0186    0.1822   0.00910  0.0000E+00  0.0000E+00  0.0000E+00    0.000
    93   93   -0.0044   -0.0219    0.1842   0.00910  0.0000E+00  0.0000E+00  0.0000E+00    0.000
    94   94    0.0044   -0.0219    0.1862   0.00910  0.0000E+00  0.0000E+00  0.0000E+00    0.000
    95   95    0.0124   -0.0186    0.1882   0.00910  0.0000E+00  0.0000E+00  0.0000E+00    0.000
    96   96    0.0186   -0.0124    0.1902   0.00910  0.0000E+00  0.0000E+00  0.0000E+00    0.000
    97   97    0.0219   -0.0044    0.1923   0.00910  0.0000E+00  0.0000E+00  0.0000E+00    0.000
    98   98    0.0219    0.0044    0.1943   0.00910  0.0000E+00  0.0000E+00  0.0000E+00    0.000
    99   99    0.0186    0.0124    0.1963   0.00910  0.0000E+00  0.0000E+00  0.0000E+00    0.000
   100  100    0.0124    0.0186    0.1983   0.00910  0.0000E+00  0.0000E+00  0.0000E+00    0.000
   101  101    0.0044    0.0219    0.2003   0.00910  0.0000E+00  0.0000E+00  0.0000E+00    0.000
   102  102   -0.0044    0.0219    0.2023   0.00910  0.0000E+00  0.0000E+00  0.0000E+00    0.000
   103  103   -0.0124    0.0186    0.2043   0.00910  0.0000E+00  0.0000E+00  0.0000E+00    0.000
   104  104   -0.0186    0.0124    0.2063   0.00910  0.0000E+00  0.0000E+00  0.0000E+00    0.000
   105  105   -0.0219    0.0044    0.2084   0.00910  0.0000E+00  0.0000E+00  0.0000E+00    0.000
   106  106   -0.0219   -0.0044    0.2104   0.00910  0.0000E+00  0.0000E+00  0.0000E+00    0.000
   107  107   -0.0186   -0.0124    0.2124   0.00910  0.0000E+00  0.0000E+00  0.0000E+00    0.000
   108  108   -0.0124   -0.0186    0.2144   0.00910  0.0000E+00  0.0000E+00  0.0000E+00    0.000
   109  109   -0.0044   -0.0219    0.2164   0.00910  0.0000E+00  0.0000E+00  0.0000E+00    0.000
   110  110    0.0044   -0.0219    0.2184   0.00910  0.0000E+00  0.0000E+00  0.0000E+00    0.000
   111  111    0.0124   -0.0186    0.2204   0.00910  0.0000E+00  0.0000E+00  0.0000E+00    0.000
   112  112    0.0186   -0.0124    0.2225   0.00910  0.0000E+00  0.0000E+00  0.0000E+00    0.000
   113  113    0.0219   -0.0044    0.2245   0.00910  0.0000E+00  0.0000E+00  0.0000E+00    0.000
   114  114    0.0219    0.0044    0.2265   0.00910  0.0000E+00  0.0000E+00  0.0000E+00    0.000
   115  115    0.0186    0.0124    0.2285   0.00910  0.0000E+00  0.0000E+00  0.0000E+00    0.000
   116  116    0.0124    0.0186    0.2305   0.00910  0.0000E+00  0.0000E+00  0.0000E+00    0.000
   117  117    0.0044    0.0219    0.2325   0.00910  0.0000E+00  0.0000E+00  0.0000E+00    0.000
   118  118   -0.0044    0.0219    0.2345   0.00910  0.0000E+00  0.0000E+00  0.0000E+00    0.000
   119  119   -0.0124    0.0186    0.2365   0.00910  0.0000E+00  0.0000E+00  0.0000E+00    0.000
   120  120   -0.0186    0.0124    0.2386   0.00910  0.0000E+00  0.0000E+00  0.0000E+00    0.000
   121  121   -0.0219    0.0044    0.2406   0.00910  0.0000E+00  0.0000E+00  0.0000E+00    0.000
   122  122   -0.0219   -0.0044    0.2426   0.00910  0.0000E+00  0.0000E+00  0.0000E+00    0.000
   123  123   -0.0186   -0.0124    0.2446   0.00910  0.0000E+00  0.0000E+00  0.0000E+00    0.000
   124  124   -0.0124   -0.0186    0.2466   0.00910  0.0000E+00  0.0000E+00  0.0000E+00    0.000
   125  125   -0.0044   -0.0219    0.2486   0.00910  0.0000E+00  0.0000E+00  0.0000E+00    0.000
   126  126    0.0044   -0.0219    0.2506   0.00910  0.0000E+00  0.0000E+00  0.0000E+00    0.000
   127  127    0.0124   -0.0186    0.2527   0.00910  0.0000E+00  0.0000E+00  0.0000E+00    0.000
   128  128    0.0186   -0.0124    0.2547   0.00910  0.0000E+00  0.0000E+00  0.0000E+00    0.000
   129  129    0.0219   -0.0044    0.2567   0.00910  0.0000E+00  0.0000E+00  0.0000E+00    0.000
   130  130    0.0219    0.0044    0.2587   0.00910  0.0000E+00  0.0000E+00  0.0000E+00    0.000
   131  131    0.0186    0.0124    0.2607   0.00910  0.0000E+00  0.0000E+00  0.0000E+00    0.000
   132  132    0.0124    0.0186    0.2627   0.00910  0.0000E+00  0.0000E+00  0.0000E+00    0.000
   133  133    0.0044    0.0219    0.2647   0.00910  0.0000E+00  0.0000E+00  0.0000E+00    0.000
   134  134   -0.0044    0.0219    0.2667   0.00910  0.0000E+00  0.0000E+00  0.0000E+00    0.000
   135  135   -0.0124    0.0186    0.2688   0.00910  0.0000E+00  0.0000E+00  0.0000E+00    0.000
   136  136   -0.0186    0.0124    0.2708   0.00910  0.0000E+00  0.0000E+00  0.0000E+00    0.000
   137  137   -0.0219    0.0044    0.2728   0.00910  0.0000E+00  0.0000E+00  0.0000E+00    0.000
   138  138   -0.0219   -0.0044    0.2748   0.00910  0.0000E+00  0.0000E+00  0.0000E+00    0.000
   139  139   -0.0186   -0.0124    0.2768   0.00910  0.0000E+00  0.0000E+00  0.0000E+00    0.000
   140  140   -0.0124   -0.0186    0.2788   0.00910  0.0000E+00  0.0000E+00  0.0000E+00    0.000
   141  141   -0.0044   -0.0219    0.2808   0.00910  0.0000E+00  0.0000E+00  0.0000E+00    0.000
   142  142    0.0044   -0.0219    0.2828   0.00910  0.0000E+00  0.0000E+00  0.0000E+00    0.000
   143  143    0.0124   -0.0186    0.2849   0.00910  0.0000E+00  0.0000E+00  0.0000E+00    0.000
   144  144    0.0186   -0.0124    0.2869   0.00910  0.0000E+00  0.0000E+00  0.0000E+00    0.000
   145  145    0.0219   -0.0044    0.2889   0.00910  0.0000E+00  0.0000E+00  0.0000E+00    0.000
   146  146    0.0219    0.0044    0.2909   0.00910  0.0000E+00  0.0000E+00  0.0000E+00    0.000
   147  147    0.0186    0.0124    0.2929   0.00910  0.0000E+00  0.0000E+00  0.0000E+00    0.000
   148  148    0.0124    0.0186    0.2949   0.00910  0.0000E+00  0.0000E+00  0.0000E+00    0.000
   149  149    0.0044    0.0219    0.2969   0.00910  0.0000E+00  0.0000E+00  0.0000E+00    0.000
   150  150   -0.0044    0.0219    0.2990   0.00910  0.0000E+00  0.0000E+00  0.0000E+00    0.000
   151  151   -0.0124    0.0186    0.3010   0.00910  0.0000E+00  0.0000E+00  0.0000E+00    0.000
   152  152   -0.0186    0.0124    0.3030   0.00910  0.0000E+00  0.0000E+00  0.0000E+00    0.000
   153  153   -0.0219    0.0044    0.3050   0.00910  0.0000E+00  0.0000E+00  0.0000E+00    0.000
   154  154   -0.0219   -0.0044    0.3070   0.00910  0.0000E+00  0.0000E+00  0.0000E+00    0.000
   155  155   -0.0186   -0.0124    0.3090   0.00910  0.0000E+00  0.0000E+00  0.0000E+00    0.000
   156  156   -0.0124   -0.0186    0.3110   0.00910  0.0000E+00  0.0000E+00  0.0000E+00    0.000
   157  157   -0.0044   -0.0219    0.3130   0.00910  0.0000E+00  0.0000E+00  0.0000E+00    0.000
   158  158    0.0044   -0.0219    0.3151   0.00910  0.0000E+00  0.0000E+00  0.0000E+00    0.000
   159  159    0.0124   -0.0186    0.3171   0.00910  0.0000E+00  0.0000E+00  0.0000E+00    0.000
   160  160    0.0186   -0.0124    0.3191   0.00910  0.0000E+00  0.0000E+00  0.0000E+00    0.000
   161  161    0.0219   -0.0044    0.3211   0.00910  0.0000E+00  0.0000E+00  0.0000E+00    0.000
   162  162    0.0219    0.0044    0.3231   0.00910  0.0000E+00  0.0000E+00  0.0000E+00    0.000
   163  163    0.0186    0.0124    0.3251   0.00910  0.0000E+00  0.0000E+00  0.0000E+00    0.000
   164  164    0.0124    0.0186    0.3271   0.00910  0.0000E+00  0.0000E+00  0.0000E+00    0.000
   165  165    0.0044    0.0219    0.3292   0.00910  0.0000E+00  0.0000E+00  0.0000E+00    0.000
   166  166   -0.0044    0.0219    0.3312   0.00910  0.0000E+00  0.0000E+00  0.0000E+00    0.000
   167  167   -0.0124    0.0186    0.3332   0.00910  0.0000E+00  0.0000E+00  0.0000E+00    0.000
   168  168   -0.0186    0.0124    0.3352   0.00910  0.0000E+00  0.0000E+00  0.0000E+00    0.000
   169  169   -0.0219    0.0044    0.3372   0.00910  0.0000E+00  0.0000E+00  0.0000E+00    0.000
   170  170   -0.0219   -0.0044    0.3392   0.00910  0.0000E+00  0.0000E+00  0.0000E+00    0.000
   171  171   -0.0186   -0.0124    0.3412   0.00910  0.0000E+00  0.0000E+00  0.0000E+00    0.000
   172  172   -0.0124   -0.0186    0.3432   0.00910  0.0000E+00  0.0000E+00  0.0000E+00    0.000
   173  173   -0.0044   -0.0219    0.3453   0.00910  0.0000E+00  0.0000E+00  0.0000E+00    0.000
   174  174    0.0044   -0.0219    0.3473   0.00910  0.0000E+00  0.0000E+00  0.0000E+00    0.000
   175  175    0.0124   -0.0186    0.3493   0.00910  0.0000E+00  0.0000E+00  0.0000E+00    0.000
   176  176    0.0186   -0.0124    0.3513   0.00910  0.0000E+00  0.0000E+00  0.0000E+00    0.000
   177  177    0.0219   -0.0044    0.3533   0.00910  0.0000E+00  0.0000E+00  0.0000E+00    0.000
   178  178    0.0219    0.0044    0.3553   0.00910  0.0000E+00  0.0000E+00  0.0000E+00    0.000
   179  179    0.0186    0.0124    0.3573   0.00910  0.0000E+00  0.0000E+00  0.0000E+00    0.000
   180  180    0.0124    0.0186    0.3593   0.00910  0.0000E+00  0.0000E+00  0.0000E+00    0.000
   181  181    0.0044    0.0219    0.3614   0.00910  0.0000E+00  0.0000E+00  0.0000E+00    0.000
   182  182   -0.0044    0.0219    0.3634   0.00910  0.0000E+00  0.0000E+00  0.0000E+00    0.000
   183  183   -0.0124    0.0186    0.3654   0.00910  0.0000E+00  0.0000E+00  0.0000E+00    0.000
   184  184   -0.0186    0.0124    0.3674   0.00910  0.0000E+00  0.0000E+00  0.0000E+00    0.000
   185  185   -0.0219    0.0044    0.3694   0.00910  0.0000E+00  0.0000E+00  0.0000E+00    0.000
   186  186   -0.0219   -0.0044    0.3714   0.00910  0.0000E+00  0.0000E+00  0.0000E+00    0.000
   187  187   -0.0186   -0.0124    0.3734   0.00910  0.0000E+00  0.0000E+00  0.0000E+00    0.000
   188  188   -0.0124   -0.0186    0.3755   0.00910  0.0000E+00  0.0000E+00  0.0000E+00    0.000
   189  189   -0.0044   -0.0219    0.3775   0.00910  0.0000E+00  0.0000E+00  0.0000E+00    0.000
   190  190    0.0044   -0.0219    0.3795   0.00910  0.0000E+00  0.0000E+00  0.0000E+00    0.000
   191  191    0.0124   -0.0186    0.3815   0.00910  0.0000E+00  0.0000E+00  0.0000E+00    0.000
   192  192    0.0186   -0.0124    0.3835   0.00910  0.0000E+00  0.0000E+00  0.0000E+00    0.000
   193  193    0.0219   -0.0044    0.3855   0.00910  0.0000E+00  0.0000E+00  0.0000E+00    0.000
   194  194    0.0219    0.0044    0.3875   0.00910  0.0000E+00  0.0000E+00  0.0000E+00    0.000
   195  195    0.0186    0.0124    0.3895   0.00910  0.0000E+00  0.0000E+00  0.0000E+00    0.000
   196  196    0.0124    0.0186    0.3916   0.00910  0.0000E+00  0.0000E+00  0.0000E+00    0.000
   197  197    0.0044    0.0219    0.3936   0.00910  0.0000E+00  0.0000E+00  0.0000E+00    0.000
   198  198   -0.0044    0.0219    0.3956   0.00910  0.0000E+00  0.0000E+00  0.0000E+00    0.000
   199  199   -0.0124    0.0186    0.3976   0.00910  0.0000E+00  0.0000E+00  0.0000E+00    0.000
   200  200   -0.0186    0.0124    0.3996   0.00910  0.0000E+00  0.0000E+00  0.0000E+00    0.000
   201  201   -0.0219    0.0044    0.4016   0.00910  0.0000E+00  0.0000E+00  0.0000E+00    0.000
   202  202   -0.0219   -0.0044    0.4036   0.00910  0.0000E+00  0.0000E+00  0.0000E+00    0.000
   203  203   -0.0186   -0.0124    0.4057   0.00910  0.0000E+00  0.0000E+00  0.0000E+00    0.000
   204  204   -0.0124   -0.0186    0.4077   0.00910  0.0000E+00  0.0000E+00  0.0000E+00    0.000
   205  205   -0.0044   -0.0219    0.4097   0.00910  0.0000E+00  0.0000E+00  0.0000E+00    0.000
   206  206    0.0044   -0.0219    0.4117   0.00910  0.0000E+00  0.0000E+00  0.0000E+00    0.000
   207  207    0.0124   -0.0186    0.4137   0.00910  0.0000E+00  0.0000E+00  0.0000E+00    0.000
   208  208    0.0186   -0.0124    0.4157   0.00910  0.0000E+00  0.0000E+00  0.0000E+00    0.000
   209  209    0.0219   -0.0044    0.4177   0.00910  0.0000E+00  0.0000E+00  0.0000E+00    0.000
   210  210    0.0219    0.0044    0.4197   0.00910  0.0000E+00  0.0000E+00  0.0000E+00    0.000
   211  211    0.0186    0.0124    0.4218   0.00910  0.0000E+00  0.0000E+00  0.0000E+00    0.000
   212  212    0.0124    0.0186    0.4238   0.00910  0.0000E+00  0.0000E+00  0.0000E+00    0.000
   213  213    0.0044    0.0219    0.4258   0.00910  0.0000E+00  0.0000E+00  0.0000E+00    0.000
   214  214   -0.0044    0.0219    0.4278   0.00910  0.0000E+00  0.0000E+00  0.0000E+00    0.000
   215  215   -0.0124    0.0186    0.4298   0.00910  0.0000E+00  0.0000E+00  0.0000E+00    0.000
   216  216   -0.0186    0.0124    0.4318   0.00910  0.0000E+00  0.0000E+00  0.0000E+00    0.000
   217  217   -0.0219    0.0044    0.4338   0.00910  0.0000E+00  0.0000E+00  0.0000E+00    0.000
   218  218   -0.0219   -0.0044    0.4358   0.00910  0.0000E+00  0.0000E+00  0.0000E+00    0.000
   219  219   -0.0186   -0.0124    0.4379   0.00910  0.0000E+00  0.0000E+00  0.0000E+00    0.000
   220  220   -0.0124   -0.0186    0.4399   0.00910  0.0000E+00  0.0000E+00  0.0000E+00    0.000
   221  221   -0.0044   -0.0219    0.4419   0.00910  0.0000E+00  0.0000E+00  0.0000E+00    0.000
   222  222    0.0044   -0.0219    0.4439   0.00910  0.0000E+00  0.0000E+00  0.0000E+00    0.000
   223  223    0.0124   -0.0186    0.4459   0.00910  0.0000E+00  0.0000E+00  0.0000E+00    0.000
   224  224    0.0186   -0.0124    0.4479   0.00910  0.0000E+00  0.0000E+00  0.0000E+00    0.000
   225  225    0.0219   -0.0044    0.4499   0.00910  0.0000E+00  0.0000E+00  0.0000E+00    0.000
   226  226    0.0219    0.0044    0.4520   0.00910  0.0000E+00  0.0000E+00  0.0000E+00    0.000
   227  227    0.0186    0.0124    0.4540   0.00910  0.0000E+00  0.0000E+00  0.0000E+00    0.000
   228  228    0.0124    0.0186    0.4560   0.00910  0.0000E+00  0.0000E+00  0.0000E+00    0.000
   229  229    0.0044    0.0219    0.4580   0.00910  0.0000E+00  0.0000E+00  0.0000E+00    0.000
   230  230   -0.0044    0.0219    0.4600   0.00910  0.0000E+00  0.0000E+00  0.0000E+00    0.000
   231  231   -0.0124    0.0186    0.4620   0.00910  0.0000E+00  0.0000E+00  0.0000E+00    0.000
   232  232   -0.0186    0.0124    0.4640   0.00910  0.0000E+00  0.0000E+00  0.0000E+00    0.000
   233  233   -0.0219    0.0044    0.4660   0.00910  0.0000E+00  0.0000E+00  0.0000E+00    0.000
   234  234   -0.0219   -0.0044    0.4681   0.00910  0.0000E+00  0.0000E+00  0.0000E+00    0.000
   235  235   -0.0186   -0.0124    0.4701   0.00910  0.0000E+00  0.0000E+00  0.0000E+00    0.000
   236  236   -0.0124   -0.0186    0.4721   0.00910  0.0000E+00  0.0000E+00  0.0000E+00    0.000
   237  237   -0.0044   -0.0219    0.4741   0.00910  0.0000E+00  0.0000E+00  0.0000E+00    0.000
   238  238    0.0044   -0.0219    0.4761   0.00910  0.0000E+00  0.0000E+00  0.0000E+00    0.000
   239  239    0.0124   -0.0186    0.4781   0.00910  0.0000E+00  0.0000E+00  0.0000E+00    0.000
   240  240    0.0186   -0.0124    0.4801   0.00910  0.0000E+00  0.0000E+00  0.0000E+00    0.000
   241  241    0.0219   -0.0044    0.4822   0.00910  0.0000E+00  0.0000E+00  0.0000E+00    0.000
   242  242    0.0219    0.0044    0.4842   0.00910  0.0000E+00  0.0000E+00  0.0000E+00    0.000
   243  243    0.0186    0.0124    0.4862   0.00910  0.0000E+00  0.0000E+00  0.0000E+00    0.000
   244  244    0.0124    0.0186    0.4882   0.00910  0.0000E+00  0.0000E+00  0.0000E+00    0.000
   245  245    0.0044    0.0219    0.4902   0.00910  0.0000E+00  0.0000E+00  0.0000E+00    0.000
   246  246   -0.0044    0.0219    0.4922   0.00910  0.0000E+00  0.0000E+00  0.0000E+00    0.000
   247  247   -0.0124    0.0186    0.4942   0.00910  0.0000E+00  0.0000E+00  0.0000E+00    0.000
   248  248   -0.0186    0.0124    0.4962   0.00910  0.0000E+00  0.0000E+00  0.0000E+00    0.000
   249  249   -0.0219    0.0044    0.4983   0.00910  0.0000E+00  0.0000E+00  0.0000E+00    0.000
   250  250   -0.0219   -0.0044    0.5003   0.00910  0.0000E+00  0.0000E+00  0.0000E+00    0.000
   251  251   -0.0186   -0.0124    0.5023   0.00910  0.0000E+00  0.0000E+00  0.0000E+00    0.000
   252  252   -0.0124   -0.0186    0.5043   0.00910  0.0000E+00  0.0000E+00  0.0000E+00    0.000
   253  253   -0.0044   -0.0219    0.5063   0.00910  0.0000E+00  0.0000E+00  0.0000E+00    0.000
   254  254    0.0044   -0.0219    0.5083   0.00910  0.0000E+00  0.0000E+00  0.0000E+00    0.000
   255  255    0.0124   -0.0186    0.5103   0.00910  0.0000E+00  0.0000E+00  0.0000E+00    0.000
   256  256    0.0186   -0.0124    0.5123   0.00910  0.0000E+00  0.0000E+00  0.0000E+00    0.000
   257  257    0.0219   -0.0044    0.5144   0.00910  0.0000E+00  0.0000E+00  0.0000E+00    0.000
   258  258    0.0219    0.0044    0.5164   0.00910  0.0000E+00  0.0000E+00  0.0000E+00    0.000
   259  259    0.0186    0.0124    0.5184   0.00910  0.0000E+00  0.0000E+00  0.0000E+00    0.000
   260  260    0.0124    0.0186    0.5204   0.00910  0.0000E+00  0.0000E+00  0.0000E+00    0.000
   261  261    0.0044    0.0219    0.5224   0.00910  0.0000E+00  0.0000E+00  0.0000E+00    0.000
   262  262   -0.0044    0.0219    0.5244   0.00910  0.0000E+00  0.0000E+00  0.0000E+00    0.000
   263  263   -0.0124    0.0186    0.5264   0.00910  0.0000E+00  0.0000E+00  0.0000E+00    0.000
   264  264   -0.0186    0.0124    0.5285   0.00910  0.0000E+00  0.0000E+00  0.0000E+00    0.000
   265  265   -0.0219    0.0044    0.5305   0.00910  0.0000E+00  0.0000E+00  0.0000E+00    0.000
   266  266   -0.0219   -0.0044    0.5325   0.00910  0.0000E+00  0.0000E+00  0.0000E+00    0.000
   267  267   -0.0186   -0.0124    0.5345   0.00910  0.0000E+00  0.0000E+00  0.0000E+00    0.000
   268  268   -0.0124   -0.0186    0.5365   0.00910  0.0000E+00  0.0000E+00  0.0000E+00    0.000
   269  269   -0.0044   -0.0219    0.5385   0.00910  0.0000E+00  0.0000E+00  0.0000E+00    0.000
   270  270    0.0044   -0.0219    0.5405   0.00910  0.0000E+00  0.0000E+00  0.0000E+00    0.000
   271  271    0.0124   -0.0186    0.5425   0.00910  0.0000E+00  0.0000E+00  0.0000E+00    0.000
   272  272    0.0186   -0.0124    0.5446   0.00910  0.0000E+00  0.0000E+00  0.0000E+00    0.000
   273  273    0.0219   -0.0044    0.5466   0.00910  0.0000E+00  0.0000E+00  0.0000E+00    0.000
   274  274    0.0219    0.0044    0.5486   0.00910  0.0000E+00  0.0000E+00  0.0000E+00    0.000
   275  275    0.0186    0.0124    0.5506   0.00910  0.0000E+00  0.0000E+00  0.0000E+00    0.000
   276  276    0.0124    0.0186    0.5526   0.00910  0.0000E+00  0.0000E+00  0.0000E+00    0.000
   277  277    0.0044    0.0219    0.5546   0.00910  0.0000E+00  0.0000E+00  0.0000E+00    0.000
   278  278   -0.0044    0.0219    0.5566   0.00910  0.0000E+00  0.0000E+00  0.0000E+00    0.000
   279  279   -0.0124    0.0186    0.5587   0.00910  0.0000E+00  0.0000E+00  0.0000E+00    0.000
   280  280   -0.0186    0.0124    0.5607   0.00910  0.0000E+00  0.0000E+00  0.0000E+00    0.000
   281  281   -0.0219    0.0044    0.5627   0.00910  0.0000E+00  0.0000E+00  0.0000E+00    0.000
   282  282   -0.0219   -0.0044    0.5647   0.00910  0.0000E+00  0.0000E+00  0.0000E+00    0.000
   283  283   -0.0186   -0.0124    0.5667   0.00910  0.0000E+00  0.0000E+00  0.0000E+00    0.000
   284  284   -0.0124   -0.0186    0.5687   0.00910  0.0000E+00  0.0000E+00  0.0000E+00    0.000
   285  285   -0.0044   -0.0219    0.5707   0.00910  0.0000E+00  0.0000E+00  0.0000E+00    0.000
   286  286    0.0044   -0.0219    0.5727   0.00910  0.0000E+00  0.0000E+00  0.0000E+00    0.000
   287  287    0.0124   -0.0186    0.5748   0.00910  0.0000E+00  0.0000E+00  0.0000E+00    0.000
   288  288    0.0186   -0.0124    0.5768   0.00910  0.0000E+00  0.0000E+00  0.0000E+00    0.000
   289  289    0.0219   -0.0044    0.5788   0.00910  0.0000E+00  0.0000E+00  0.0000E+00    0.000
   290  290    0.0219    0.0044    0.5808   0.00910  0.0000E+00  0.0000E+00  0.0000E+00    0.000
   291  291    0.0186    0.0124    0.5828   0.00910  0.0000E+00  0.0000E+00  0.0000E+00    0.000
   292  292    0.0124    0.0186    0.5848   0.00910  0.0000E+00  0.0000E+00  0.0000E+00    0.000
   293  293    0.0044    0.0219    0.5868   0.00910  0.0000E+00  0.0000E+00  0.0000E+00    0.000
   294  294   -0.0044    0.0219    0.5888   0.00910  0.0000E+00  0.0000E+00  0.0000E+00    0.000
   295  295   -0.0124    0.0186    0.5909   0.00910  0.0000E+00  0.0000E+00  0.0000E+00    0.000
   296  296   -0.0186    0.0124    0.5929   0.00910  0.0000E+00  0.0000E+00  0.0000E+00    0.000
   297  297   -0.0219    0.0044    0.5949   0.00910  0.0000E+00  0.0000E+00  0.0000E+00    0.000
   298  298   -0.0219   -0.0044    0.5969   0.00910  0.0000E+00  0.0000E+00  0.0000E+00    0.000
   299  299   -0.0186   -0.0124    0.5989   0.00910  0.0000E+00  0.0000E+00  0.0000E+00    0.000
   300  300   -0.0124   -0.0186    0.6009   0.00910  0.0000E+00  0.0000E+00  0.0000E+00    0.000
   301  301   -0.0044   -0.0219    0.6029   0.00910  0.0000E+00  0.0000E+00  0.0000E+00    0.000
   302  302    0.0044   -0.0219    0.6050   0.00910  0.0000E+00  0.0000E+00  0.0000E+00    0.000
   303  303    0.0124   -0.0186    0.6070   0.00910  0.0000E+00  0.0000E+00  0.0000E+00    0.000
   304  304    0.0186   -0.0124    0.6090   0.00910  0.0000E+00  0.0000E+00  0.0000E+00    0.000
   305  305    0.0219   -0.0044    0.6110   0.00910  0.0000E+00  0.0000E+00  0.0000E+00    0.000
   306  306    0.0114    0.0000    0.6120   0.02275  0.0000E+00  0.0000E+00  0.0000E+00    0.000


                               ---------- POWER BUDGET ---------
                               INPUT POWER   =  0.0000E+00 Watts
                               RADIATED POWER=  0.0000E+00 Watts
                               STRUCTURE LOSS=  0.0000E+00 Watts
                               NETWORK LOSS  =  0.0000E+00 Watts
                               EFFICIENCY    =     NAN Percent



  DATA CARD No:   2 EN   0     0     0     0  0.00000E+00  0.00000E+00  0.00000E+00  0.00000E+00  0.00000E+00  0.00000E+00

  TOTAL RUN TIME: 1210 msec