


                               __________________________________________
                              |                                          |
                              |  NUMERICAL ELECTROMAGNETICS CODE (nec2c) |
                              |   Translated to 'C' in Double Precision  |
                              |__________________________________________|



                               ---------------- COMMENTS ----------------
                               B-ant.: vertical              
                              



                               -------- STRUCTURE SPECIFICATION --------
                                     COORDINATES MUST BE INPUT IN
                                     METERS OR BE SCALED TO METERS
                                     BEFORE STRUCTURE INPUT IS ENDED

  WIRE                                                                                 SEG FIRST  LAST  TAG
   No:        X1         Y1         Z1         X2         Y2         Z2       RADIUS   No:   SEG   SEG  No:
     1      0.0000     0.0000     9.9194     0.0000     0.0000     9.1707     0.0010    15     1    15    1
     2      0.0000     0.0000     9.1707     0.7486     0.0000     9.9194     0.0010    25    16    40    2
     3      0.7486     0.0000     9.9194     0.0000     0.0000    10.6680     0.0010    25    41    65    3
     4      0.0000     0.0000    10.6680     0.7486     0.0000    11.4166     0.0010    25    66    90    4
     5      0.7486     0.0000    11.4166     0.0000     0.0000    12.1652     0.0010    25    91   115    5
     6      0.0000     0.0000    12.1652     0.0000     0.0000    11.4166     0.0010    15   116   130    6

     GROUND PLANE SPECIFIED.
     WHERE WIRE ENDS TOUCH GROUND, CURRENT WILL BE INTERPOLATED TO IMAGE IN GROUND PLANE.


     TOTAL SEGMENTS USED: 130   SEGMENTS IN A SYMMETRIC CELL: 130   SYMMETRY FLAG: 0


                               ---------- SEGMENTATION DATA ----------
                                        COORDINATES IN METERS
                            I+ AND I- INDICATE THE SEGMENTS BEFORE AND AFTER I

   SEG    COORDINATES OF SEGM CENTER     SEGM    ORIENTATION ANGLES    WIRE    CONNECTION DATA   TAG
   No:       X         Y         Z      LENGTH     ALPHA      BETA    RADIUS    I-     I    I+   No:
     1    0.0000    0.0000    9.8944    0.0499  -90.0000    0.0000    0.0010     0     1     2     1
     2    0.0000    0.0000    9.8445    0.0499  -90.0000    0.0000    0.0010     1     2     3     1
     3    0.0000    0.0000    9.7946    0.0499  -90.0000    0.0000    0.0010     2     3     4     1
     4    0.0000    0.0000    9.7447    0.0499  -90.0000    0.0000    0.0010     3     4     5     1
     5    0.0000    0.0000    9.6948    0.0499  -90.0000    0.0000    0.0010     4     5     6     1
     6    0.0000    0.0000    9.6449    0.0499  -90.0000    0.0000    0.0010     5     6     7     1
     7    0.0000    0.0000    9.5950    0.0499  -90.0000    0.0000    0.0010     6     7     8     1
     8    0.0000    0.0000    9.5451    0.0499  -90.0000    0.0000    0.0010     7     8     9     1
     9    0.0000    0.0000    9.4951    0.0499  -90.0000    0.0000    0.0010     8     9    10     1
    10    0.0000    0.0000    9.4452    0.0499  -90.0000    0.0000    0.0010     9    10    11     1
    11    0.0000    0.0000    9.3953    0.0499  -90.0000    0.0000    0.0010    10    11    12     1
    12    0.0000    0.0000    9.3454    0.0499  -90.0000    0.0000    0.0010    11    12    13     1
    13    0.0000    0.0000    9.2955    0.0499  -90.0000    0.0000    0.0010    12    13    14     1
    14    0.0000    0.0000    9.2456    0.0499  -90.0000    0.0000    0.0010    13    14    15     1
    15    0.0000    0.0000    9.1957    0.0499  -90.0000    0.0000    0.0010    14    15    16     1
    16    0.0150    0.0000    9.1857    0.0423   45.0000    0.0000    0.0010    15    16    17     2
    17    0.0449    0.0000    9.2157    0.0423   45.0000    0.0000    0.0010    16    17    18     2
    18    0.0749    0.0000    9.2456    0.0423   45.0000    0.0000    0.0010    17    18    19     2
    19    0.1048    0.0000    9.2755    0.0423   45.0000    0.0000    0.0010    18    19    20     2
    20    0.1348    0.0000    9.3055    0.0423   45.0000    0.0000    0.0010    19    20    21     2
    21    0.1647    0.0000    9.3354    0.0423   45.0000    0.0000    0.0010    20    21    22     2
    22    0.1946    0.0000    9.3654    0.0423   45.0000    0.0000    0.0010    21    22    23     2
    23    0.2246    0.0000    9.3953    0.0423   45.0000    0.0000    0.0010    22    23    24     2
    24    0.2545    0.0000    9.4253    0.0423   45.0000    0.0000    0.0010    23    24    25     2
    25    0.2845    0.0000    9.4552    0.0423   45.0000    0.0000    0.0010    24    25    26     2
    26    0.3144    0.0000    9.4852    0.0423   45.0000    0.0000    0.0010    25    26    27     2
    27    0.3444    0.0000    9.5151    0.0423   45.0000    0.0000    0.0010    26    27    28     2
    28    0.3743    0.0000    9.5451    0.0423   45.0000    0.0000    0.0010    27    28    29     2
    29    0.4043    0.0000    9.5750    0.0423   45.0000    0.0000    0.0010    28    29    30     2
    30    0.4342    0.0000    9.6049    0.0423   45.0000    0.0000    0.0010    29    30    31     2
    31    0.4642    0.0000    9.6349    0.0423   45.0000    0.0000    0.0010    30    31    32     2
    32    0.4941    0.0000    9.6648    0.0423   45.0000    0.0000    0.0010    31    32    33     2
    33    0.5240    0.0000    9.6948    0.0423   45.0000    0.0000    0.0010    32    33    34     2
    34    0.5540    0.0000    9.7247    0.0423   45.0000    0.0000    0.0010    33    34    35     2
    35    0.5839    0.0000    9.7547    0.0423   45.0000    0.0000    0.0010    34    35    36     2
    36    0.6139    0.0000    9.7846    0.0423   45.0000    0.0000    0.0010    35    36    37     2
    37    0.6438    0.0000    9.8146    0.0423   45.0000    0.0000    0.0010    36    37    38     2
    38    0.6738    0.0000    9.8445    0.0423   45.0000    0.0000    0.0010    37    38    39     2
    39    0.7037    0.0000    9.8745    0.0423   45.0000    0.0000    0.0010    38    39    40     2
    40    0.7337    0.0000    9.9044    0.0423   45.0000    0.0000    0.0010    39    40    41     2
    41    0.7337    0.0000    9.9343    0.0423   45.0000  180.0000    0.0010    40    41    42     3
    42    0.7037    0.0000    9.9643    0.0423   45.0000  180.0000    0.0010    41    42    43     3
    43    0.6738    0.0000    9.9942    0.0423   45.0000  180.0000    0.0010    42    43    44     3
    44    0.6438    0.0000   10.0242    0.0423   45.0000  180.0000    0.0010    43    44    45     3
    45    0.6139    0.0000   10.0541    0.0423   45.0000  180.0000    0.0010    44    45    46     3
    46    0.5839    0.0000   10.0841    0.0423   45.0000  180.0000    0.0010    45    46    47     3
    47    0.5540    0.0000   10.1140    0.0423   45.0000  180.0000    0.0010    46    47    48     3
    48    0.5240    0.0000   10.1440    0.0423   45.0000  180.0000    0.0010    47    48    49     3
    49    0.4941    0.0000   10.1739    0.0423   45.0000  180.0000    0.0010    48    49    50     3
    50    0.4642    0.0000   10.2038    0.0423   45.0000  180.0000    0.0010    49    50    51     3
    51    0.4342    0.0000   10.2338    0.0423   45.0000  180.0000    0.0010    50    51    52     3
    52    0.4043    0.0000   10.2637    0.0423   45.0000  180.0000    0.0010    51    52    53     3
    53    0.3743    0.0000   10.2937    0.0423   45.0000  180.0000    0.0010    52    53    54     3
    54    0.3444    0.0000   10.3236    0.0423   45.0000  180.0000    0.0010    53    54    55     3
    55    0.3144    0.0000   10.3536    0.0423   45.0000  180.0000    0.0010    54    55    56     3
    56    0.2845    0.0000   10.3835    0.0423   45.0000  180.0000    0.0010    55    56    57     3
    57    0.2545    0.0000   10.4135    0.0423   45.0000  180.0000    0.0010    56    57    58     3
    58    0.2246    0.0000   10.4434    0.0423   45.0000  180.0000    0.0010    57    58    59     3
    59    0.1946    0.0000   10.4734    0.0423   45.0000  180.0000    0.0010    58    59    60     3
    60    0.1647    0.0000   10.5033    0.0423   45.0000  180.0000    0.0010    59    60    61     3
    61    0.1348    0.0000   10.5332    0.0423   45.0000  180.0000    0.0010    60    61    62     3
    62    0.1048    0.0000   10.5632    0.0423   45.0000  180.0000    0.0010    61    62    63     3
    63    0.0749    0.0000   10.5931    0.0423   45.0000  180.0000    0.0010    62    63    64     3
    64    0.0449    0.0000   10.6231    0.0423   45.0000  180.0000    0.0010    63    64    65     3
    65    0.0150    0.0000   10.6530    0.0423   45.0000  180.0000    0.0010    64    65    66     3
    66    0.0150    0.0000   10.6830    0.0423   44.9989    0.0000    0.0010    65    66    67     4
    67    0.0449    0.0000   10.7129    0.0423   44.9989    0.0000    0.0010    66    67    68     4
    68    0.0749    0.0000   10.7429    0.0423   44.9989    0.0000    0.0010    67    68    69     4
    69    0.1048    0.0000   10.7728    0.0423   44.9989    0.0000    0.0010    68    69    70     4
    70    0.1348    0.0000   10.8027    0.0423   44.9989    0.0000    0.0010    69    70    71     4
    71    0.1647    0.0000   10.8327    0.0423   44.9989    0.0000    0.0010    70    71    72     4
    72    0.1946    0.0000   10.8626    0.0423   44.9989    0.0000    0.0010    71    72    73     4
    73    0.2246    0.0000   10.8926    0.0423   44.9989    0.0000    0.0010    72    73    74     4
    74    0.2545    0.0000   10.9225    0.0423   44.9989    0.0000    0.0010    73    74    75     4
    75    0.2845    0.0000   10.9525    0.0423   44.9989    0.0000    0.0010    74    75    76     4
    76    0.3144    0.0000   10.9824    0.0423   44.9989    0.0000    0.0010    75    76    77     4
    77    0.3444    0.0000   11.0124    0.0423   44.9989    0.0000    0.0010    76    77    78     4
    78    0.3743    0.0000   11.0423    0.0423   44.9989    0.0000    0.0010    77    78    79     4
    79    0.4043    0.0000   11.0722    0.0423   44.9989    0.0000    0.0010    78    79    80     4
    80    0.4342    0.0000   11.1022    0.0423   44.9989    0.0000    0.0010    79    80    81     4
    81    0.4642    0.0000   11.1321    0.0423   44.9989    0.0000    0.0010    80    81    82     4
    82    0.4941    0.0000   11.1621    0.0423   44.9989    0.0000    0.0010    81    82    83     4
    83    0.5240    0.0000   11.1920    0.0423   44.9989    0.0000    0.0010    82    83    84     4
    84    0.5540    0.0000   11.2220    0.0423   44.9989    0.0000    0.0010    83    84    85     4
    85    0.5839    0.0000   11.2519    0.0423   44.9989    0.0000    0.0010    84    85    86     4
    86    0.6139    0.0000   11.2819    0.0423   44.9989    0.0000    0.0010    85    86    87     4
    87    0.6438    0.0000   11.3118    0.0423   44.9989    0.0000    0.0010    86    87    88     4
    88    0.6738    0.0000   11.3417    0.0423   44.9989    0.0000    0.0010    87    88    89     4
    89    0.7037    0.0000   11.3717    0.0423   44.9989    0.0000    0.0010    88    89    90     4
    90    0.7337    0.0000   11.4016    0.0423   44.9989    0.0000    0.0010    89    90    91     4
    91    0.7337    0.0000   11.4316    0.0423   44.9989  180.0000    0.0010    90    91    92     5
    92    0.7037    0.0000   11.4615    0.0423   44.9989  180.0000    0.0010    91    92    93     5
    93    0.6738    0.0000   11.4915    0.0423   44.9989  180.0000    0.0010    92    93    94     5
    94    0.6438    0.0000   11.5214    0.0423   44.9989  180.0000    0.0010    93    94    95     5
    95    0.6139    0.0000   11.5513    0.0423   44.9989  180.0000    0.0010    94    95    96     5
    96    0.5839    0.0000   11.5813    0.0423   44.9989  180.0000    0.0010    95    96    97     5
    97    0.5540    0.0000   11.6112    0.0423   44.9989  180.0000    0.0010    96    97    98     5
    98    0.5240    0.0000   11.6412    0.0423   44.9989  180.0000    0.0010    97    98    99     5
    99    0.4941    0.0000   11.6711    0.0423   44.9989  180.0000    0.0010    98    99   100     5
   100    0.4642    0.0000   11.7011    0.0423   44.9989  180.0000    0.0010    99   100   101     5
   101    0.4342    0.0000   11.7310    0.0423   44.9989  180.0000    0.0010   100   101   102     5
   102    0.4043    0.0000   11.7610    0.0423   44.9989  180.0000    0.0010   101   102   103     5
   103    0.3743    0.0000   11.7909    0.0423   44.9989  180.0000    0.0010   102   103   104     5
   104    0.3444    0.0000   11.8208    0.0423   44.9989  180.0000    0.0010   103   104   105     5
   105    0.3144    0.0000   11.8508    0.0423   44.9989  180.0000    0.0010   104   105   106     5
   106    0.2845    0.0000   11.8807    0.0423   44.9989  180.0000    0.0010   105   106   107     5
   107    0.2545    0.0000   11.9107    0.0423   44.9989  180.0000    0.0010   106   107   108     5
   108    0.2246    0.0000   11.9406    0.0423   44.9989  180.0000    0.0010   107   108   109     5
   109    0.1946    0.0000   11.9706    0.0423   44.9989  180.0000    0.0010   108   109   110     5
   110    0.1647    0.0000   12.0005    0.0423   44.9989  180.0000    0.0010   109   110   111     5
   111    0.1348    0.0000   12.0305    0.0423   44.9989  180.0000    0.0010   110   111   112     5
   112    0.1048    0.0000   12.0604    0.0423   44.9989  180.0000    0.0010   111   112   113     5
   113    0.0749    0.0000   12.0903    0.0423   44.9989  180.0000    0.0010   112   113   114     5
   114    0.0449    0.0000   12.1203    0.0423   44.9989  180.0000    0.0010   113   114   115     5
   115    0.0150    0.0000   12.1502    0.0423   44.9989  180.0000    0.0010   114   115   116     5
   116    0.0000    0.0000   12.1402    0.0499  -90.0000    0.0000    0.0010   115   116   117     6
   117    0.0000    0.0000   12.0903    0.0499  -90.0000    0.0000    0.0010   116   117   118     6
   118    0.0000    0.0000   12.0404    0.0499  -90.0000    0.0000    0.0010   117   118   119     6
   119    0.0000    0.0000   11.9905    0.0499  -90.0000    0.0000    0.0010   118   119   120     6
   120    0.0000    0.0000   11.9406    0.0499  -90.0000    0.0000    0.0010   119   120   121     6
   121    0.0000    0.0000   11.8907    0.0499  -90.0000    0.0000    0.0010   120   121   122     6
   122    0.0000    0.0000   11.8408    0.0499  -90.0000    0.0000    0.0010   121   122   123     6
   123    0.0000    0.0000   11.7909    0.0499  -90.0000    0.0000    0.0010   122   123   124     6
   124    0.0000    0.0000   11.7410    0.0499  -90.0000    0.0000    0.0010   123   124   125     6
   125    0.0000    0.0000   11.6911    0.0499  -90.0000    0.0000    0.0010   124   125   126     6
   126    0.0000    0.0000   11.6412    0.0499  -90.0000    0.0000    0.0010   125   126   127     6
   127    0.0000    0.0000   11.5913    0.0499  -90.0000    0.0000    0.0010   126   127   128     6
   128    0.0000    0.0000   11.5414    0.0499  -90.0000    0.0000    0.0010   127   128   129     6
   129    0.0000    0.0000   11.4915    0.0499  -90.0000    0.0000    0.0010   128   129   130     6
   130    0.0000    0.0000   11.4416    0.0499  -90.0000    0.0000    0.0010   129   130     0     6



  DATA CARD No:   1 LD   5     1     0     0  5.74710E+07  1.00000E+00  0.00000E+00  0.00000E+00  0.00000E+00  0.00000E+00
  DATA CARD No:   2 LD   5     2     0     0  5.74710E+07  1.00000E+00  0.00000E+00  0.00000E+00  0.00000E+00  0.00000E+00
  DATA CARD No:   3 LD   5     3     0     0  5.74710E+07  1.00000E+00  0.00000E+00  0.00000E+00  0.00000E+00  0.00000E+00
  DATA CARD No:   4 LD   5     4     0     0  5.74710E+07  1.00000E+00  0.00000E+00  0.00000E+00  0.00000E+00  0.00000E+00
  DATA CARD No:   5 LD   5     5     0     0  5.74710E+07  1.00000E+00  0.00000E+00  0.00000E+00  0.00000E+00  0.00000E+00
  DATA CARD No:   6 LD   5     6     0     0  5.74710E+07  1.00000E+00  0.00000E+00  0.00000E+00  0.00000E+00  0.00000E+00
  DATA CARD No:   7 FR   0     1     0     0  2.85000E+01  0.00000E+00  0.00000E+00  0.00000E+00  0.00000E+00  0.00000E+00
  DATA CARD No:   8 GN   2     0     0     0  1.30000E+01  5.00000E-03  0.00000E+00  0.00000E+00  0.00000E+00  0.00000E+00
  DATA CARD No:   9 EX   0     3    25     0  7.07107E-01  0.00000E+00  0.00000E+00  0.00000E+00  0.00000E+00  0.00000E+00
  DATA CARD No:  10 EX   0     4     1     0  7.07107E-01  0.00000E+00  0.00000E+00  0.00000E+00  0.00000E+00  0.00000E+00
  DATA CARD No:  11 RP   0   181     1  1000  9.00000E+01  0.00000E+00 -1.00000E+00  0.00000E+00  0.00000E+00  0.00000E+00


                               --------- FREQUENCY --------
                                FREQUENCY : 2.8500E+01 MHz
                                WAVELENGTH: 1.0519E+01 Mtr

                        APPROXIMATE INTEGRATION EMPLOYED FOR SEGMENTS 
                        THAT ARE MORE THAN 1.000 WAVELENGTHS APART


                          ------ STRUCTURE IMPEDANCE LOADING ------
  LOCATION        RESISTANCE  INDUCTANCE  CAPACITANCE     IMPEDANCE (OHMS)   CONDUCTIVITY  CIRCUIT
  ITAG FROM THRU     OHMS       HENRYS      FARADS       REAL     IMAGINARY   MHOS/METER      TYPE
     1                                                                        5.7471E+07     WIRE  
     2                                                                        5.7471E+07     WIRE  
     3                                                                        5.7471E+07     WIRE  
     4                                                                        5.7471E+07     WIRE  
     5                                                                        5.7471E+07     WIRE  
     6                                                                        5.7471E+07     WIRE  


                            -------- ANTENNA ENVIRONMENT --------
                            FINITE GROUND - SOMMERFELD SOLUTION
                            RELATIVE DIELECTRIC CONST: 13.000
                            CONDUCTIVITY:  5.000E-03 MHOS/METER
                            COMPLEX DIELECTRIC CONSTANT:  1.3000E+01-3.1537E+00j


                             ---------- MATRIX TIMING ----------
                               FILL: 530 msec  FACTOR: 40 msec


                        --------- ANTENNA INPUT PARAMETERS ---------
  TAG   SEG       VOLTAGE (VOLTS)         CURRENT (AMPS)         IMPEDANCE (OHMS)        ADMITTANCE (MHOS)     POWER
  No:   No:     REAL      IMAGINARY     REAL      IMAGINARY     REAL      IMAGINARY    REAL       IMAGINARY   (WATTS)
    3    65  7.0711E-01  0.0000E+00  4.5807E-02  3.3395E-03  1.5355E+01 -1.1194E+00  6.4780E-02  4.7227E-03  1.6195E-02
    4    66  7.0711E-01  0.0000E+00  4.5807E-02  3.3393E-03  1.5355E+01 -1.1194E+00  6.4780E-02  4.7225E-03  1.6195E-02


                           -------- CURRENTS AND LOCATION --------
                                  DISTANCES IN WAVELENGTHS

   SEG  TAG    COORDINATES OF SEGM CENTER     SEGM    ------------- CURRENT (AMPS) -------------
   No:  No:       X         Y         Z      LENGTH     REAL      IMAGINARY    MAGN        PHASE
     1    1    0.0000    0.0000    0.9406   0.00474  9.3602E-04  6.2848E-05  9.3813E-04    3.841
     2    1    0.0000    0.0000    0.9359   0.00474  2.4640E-03  1.6324E-04  2.4694E-03    3.790
     3    1    0.0000    0.0000    0.9311   0.00474  3.8627E-03  2.5239E-04  3.8709E-03    3.738
     4    1    0.0000    0.0000    0.9264   0.00474  5.2101E-03  3.3571E-04  5.2209E-03    3.687
     5    1    0.0000    0.0000    0.9216   0.00474  6.5231E-03  4.1440E-04  6.5362E-03    3.635
     6    1    0.0000    0.0000    0.9169   0.00474  7.8092E-03  4.8901E-04  7.8245E-03    3.583
     7    1    0.0000    0.0000    0.9121   0.00474  9.0723E-03  5.5986E-04  9.0896E-03    3.531
     8    1    0.0000    0.0000    0.9074   0.00474  1.0315E-02  6.2714E-04  1.0334E-02    3.479
     9    1    0.0000    0.0000    0.9026   0.00474  1.1538E-02  6.9095E-04  1.1559E-02    3.427
    10    1    0.0000    0.0000    0.8979   0.00474  1.2742E-02  7.5137E-04  1.2764E-02    3.375
    11    1    0.0000    0.0000    0.8932   0.00474  1.3928E-02  8.0844E-04  1.3951E-02    3.322
    12    1    0.0000    0.0000    0.8884   0.00474  1.5095E-02  8.6221E-04  1.5120E-02    3.269
    13    1    0.0000    0.0000    0.8837   0.00474  1.6244E-02  9.1268E-04  1.6269E-02    3.216
    14    1    0.0000    0.0000    0.8789   0.00474  1.7374E-02  9.5985E-04  1.7400E-02    3.162
    15    1    0.0000    0.0000    0.8742   0.00474  1.8485E-02  1.0037E-03  1.8512E-02    3.108
    16    2    0.0014    0.0000    0.8732   0.00403  1.9496E-02  1.0416E-03  1.9524E-02    3.058
    17    2    0.0043    0.0000    0.8761   0.00403  2.0416E-02  1.0767E-03  2.0444E-02    3.019
    18    2    0.0071    0.0000    0.8789   0.00403  2.1328E-02  1.1127E-03  2.1357E-02    2.986
    19    2    0.0100    0.0000    0.8818   0.00403  2.2232E-02  1.1494E-03  2.2262E-02    2.960
    20    2    0.0128    0.0000    0.8846   0.00403  2.3128E-02  1.1869E-03  2.3158E-02    2.938
    21    2    0.0157    0.0000    0.8875   0.00403  2.4014E-02  1.2251E-03  2.4045E-02    2.921
    22    2    0.0185    0.0000    0.8903   0.00403  2.4891E-02  1.2641E-03  2.4923E-02    2.907
    23    2    0.0214    0.0000    0.8932   0.00403  2.5758E-02  1.3039E-03  2.5791E-02    2.898
    24    2    0.0242    0.0000    0.8960   0.00403  2.6615E-02  1.3443E-03  2.6649E-02    2.892
    25    2    0.0270    0.0000    0.8988   0.00403  2.7460E-02  1.3854E-03  2.7495E-02    2.888
    26    2    0.0299    0.0000    0.9017   0.00403  2.8294E-02  1.4272E-03  2.8330E-02    2.888
    27    2    0.0327    0.0000    0.9045   0.00403  2.9115E-02  1.4697E-03  2.9152E-02    2.890
    28    2    0.0356    0.0000    0.9074   0.00403  2.9924E-02  1.5127E-03  2.9962E-02    2.894
    29    2    0.0384    0.0000    0.9102   0.00403  3.0718E-02  1.5563E-03  3.0758E-02    2.900
    30    2    0.0413    0.0000    0.9131   0.00403  3.1499E-02  1.6005E-03  3.1540E-02    2.909
    31    2    0.0441    0.0000    0.9159   0.00403  3.2265E-02  1.6452E-03  3.2306E-02    2.919
    32    2    0.0470    0.0000    0.9188   0.00403  3.3014E-02  1.6903E-03  3.3058E-02    2.931
    33    2    0.0498    0.0000    0.9216   0.00403  3.3748E-02  1.7358E-03  3.3792E-02    2.944
    34    2    0.0527    0.0000    0.9245   0.00403  3.4464E-02  1.7817E-03  3.4510E-02    2.959
    35    2    0.0555    0.0000    0.9273   0.00403  3.5162E-02  1.8280E-03  3.5210E-02    2.976
    36    2    0.0584    0.0000    0.9302   0.00403  3.5842E-02  1.8745E-03  3.5891E-02    2.994
    37    2    0.0612    0.0000    0.9330   0.00403  3.6502E-02  1.9213E-03  3.6553E-02    3.013
    38    2    0.0641    0.0000    0.9359   0.00403  3.7143E-02  1.9684E-03  3.7195E-02    3.034
    39    2    0.0669    0.0000    0.9387   0.00403  3.7764E-02  2.0156E-03  3.7817E-02    3.055
    40    2    0.0697    0.0000    0.9415   0.00403  3.8364E-02  2.0632E-03  3.8419E-02    3.078
    41    3    0.0697    0.0000    0.9444   0.00403  3.8943E-02  2.1111E-03  3.9000E-02    3.103
    42    3    0.0669    0.0000    0.9472   0.00403  3.9499E-02  2.1594E-03  3.9558E-02    3.129
    43    3    0.0641    0.0000    0.9501   0.00403  4.0032E-02  2.2079E-03  4.0093E-02    3.157
    44    3    0.0612    0.0000    0.9529   0.00403  4.0542E-02  2.2564E-03  4.0605E-02    3.186
    45    3    0.0584    0.0000    0.9558   0.00403  4.1029E-02  2.3050E-03  4.1093E-02    3.215
    46    3    0.0555    0.0000    0.9586   0.00403  4.1491E-02  2.3536E-03  4.1558E-02    3.247
    47    3    0.0527    0.0000    0.9615   0.00403  4.1930E-02  2.4022E-03  4.1998E-02    3.279
    48    3    0.0498    0.0000    0.9643   0.00403  4.2344E-02  2.4509E-03  4.2415E-02    3.313
    49    3    0.0470    0.0000    0.9672   0.00403  4.2735E-02  2.4995E-03  4.2808E-02    3.347
    50    3    0.0441    0.0000    0.9700   0.00403  4.3101E-02  2.5482E-03  4.3176E-02    3.383
    51    3    0.0413    0.0000    0.9729   0.00403  4.3444E-02  2.5970E-03  4.3521E-02    3.421
    52    3    0.0384    0.0000    0.9757   0.00403  4.3763E-02  2.6458E-03  4.3843E-02    3.460
    53    3    0.0356    0.0000    0.9786   0.00403  4.4058E-02  2.6947E-03  4.4140E-02    3.500
    54    3    0.0327    0.0000    0.9814   0.00403  4.4330E-02  2.7438E-03  4.4415E-02    3.542
    55    3    0.0299    0.0000    0.9842   0.00403  4.4579E-02  2.7931E-03  4.4666E-02    3.585
    56    3    0.0270    0.0000    0.9871   0.00403  4.4804E-02  2.8427E-03  4.4894E-02    3.630
    57    3    0.0242    0.0000    0.9899   0.00403  4.5007E-02  2.8927E-03  4.5100E-02    3.678
    58    3    0.0214    0.0000    0.9928   0.00403  4.5186E-02  2.9432E-03  4.5282E-02    3.727
    59    3    0.0185    0.0000    0.9956   0.00403  4.5343E-02  2.9943E-03  4.5441E-02    3.778
    60    3    0.0157    0.0000    0.9985   0.00403  4.5477E-02  3.0463E-03  4.5578E-02    3.832
    61    3    0.0128    0.0000    1.0013   0.00403  4.5588E-02  3.0994E-03  4.5693E-02    3.889
    62    3    0.0100    0.0000    1.0042   0.00403  4.5676E-02  3.1543E-03  4.5785E-02    3.951
    63    3    0.0071    0.0000    1.0070   0.00403  4.5742E-02  3.2120E-03  4.5854E-02    4.017
    64    3    0.0043    0.0000    1.0099   0.00403  4.5785E-02  3.2750E-03  4.5902E-02    4.091
    65    3    0.0014    0.0000    1.0127   0.00403  4.5807E-02  3.3395E-03  4.5928E-02    4.170
    66    4    0.0014    0.0000    1.0156   0.00403  4.5807E-02  3.3393E-03  4.5928E-02    4.169
    67    4    0.0043    0.0000    1.0184   0.00403  4.5786E-02  3.2745E-03  4.5902E-02    4.091
    68    4    0.0071    0.0000    1.0213   0.00403  4.5742E-02  3.2111E-03  4.5855E-02    4.016
    69    4    0.0100    0.0000    1.0241   0.00403  4.5677E-02  3.1532E-03  4.5785E-02    3.949
    70    4    0.0128    0.0000    1.0269   0.00403  4.5589E-02  3.0980E-03  4.5694E-02    3.888
    71    4    0.0157    0.0000    1.0298   0.00403  4.5478E-02  3.0446E-03  4.5579E-02    3.830
    72    4    0.0185    0.0000    1.0326   0.00403  4.5344E-02  2.9924E-03  4.5443E-02    3.776
    73    4    0.0214    0.0000    1.0355   0.00403  4.5188E-02  2.9410E-03  4.5283E-02    3.724
    74    4    0.0242    0.0000    1.0383   0.00403  4.5008E-02  2.8904E-03  4.5101E-02    3.674
    75    4    0.0270    0.0000    1.0412   0.00403  4.4806E-02  2.8403E-03  4.4896E-02    3.627
    76    4    0.0299    0.0000    1.0440   0.00403  4.4581E-02  2.7906E-03  4.4668E-02    3.582
    77    4    0.0327    0.0000    1.0469   0.00403  4.4333E-02  2.7411E-03  4.4417E-02    3.538
    78    4    0.0356    0.0000    1.0497   0.00403  4.4061E-02  2.6920E-03  4.4143E-02    3.496
    79    4    0.0384    0.0000    1.0526   0.00403  4.3766E-02  2.6430E-03  4.3846E-02    3.456
    80    4    0.0413    0.0000    1.0554   0.00403  4.3447E-02  2.5942E-03  4.3524E-02    3.417
    81    4    0.0441    0.0000    1.0583   0.00403  4.3105E-02  2.5454E-03  4.3180E-02    3.380
    82    4    0.0470    0.0000    1.0611   0.00403  4.2738E-02  2.4968E-03  4.2811E-02    3.343
    83    4    0.0498    0.0000    1.0640   0.00403  4.2348E-02  2.4482E-03  4.2419E-02    3.309
    84    4    0.0527    0.0000    1.0668   0.00403  4.1934E-02  2.3996E-03  4.2003E-02    3.275
    85    4    0.0555    0.0000    1.0696   0.00403  4.1496E-02  2.3511E-03  4.1562E-02    3.243
    86    4    0.0584    0.0000    1.0725   0.00403  4.1033E-02  2.3027E-03  4.1098E-02    3.212
    87    4    0.0612    0.0000    1.0753   0.00403  4.0547E-02  2.2542E-03  4.0610E-02    3.182
    88    4    0.0641    0.0000    1.0782   0.00403  4.0038E-02  2.2059E-03  4.0098E-02    3.154
    89    4    0.0669    0.0000    1.0810   0.00403  3.9505E-02  2.1577E-03  3.9564E-02    3.126
    90    4    0.0697    0.0000    1.0839   0.00403  3.8948E-02  2.1097E-03  3.9005E-02    3.100
    91    5    0.0697    0.0000    1.0867   0.00403  3.8370E-02  2.0620E-03  3.8425E-02    3.076
    92    5    0.0669    0.0000    1.0896   0.00403  3.7770E-02  2.0147E-03  3.7824E-02    3.053
    93    5    0.0641    0.0000    1.0924   0.00403  3.7150E-02  1.9677E-03  3.7202E-02    3.032
    94    5    0.0612    0.0000    1.0953   0.00403  3.6509E-02  1.9209E-03  3.6559E-02    3.012
    95    5    0.0584    0.0000    1.0981   0.00403  3.5848E-02  1.8743E-03  3.5897E-02    2.993
    96    5    0.0555    0.0000    1.1010   0.00403  3.5169E-02  1.8280E-03  3.5216E-02    2.975
    97    5    0.0527    0.0000    1.1038   0.00403  3.4471E-02  1.7820E-03  3.4517E-02    2.959
    98    5    0.0498    0.0000    1.1066   0.00403  3.3755E-02  1.7362E-03  3.3799E-02    2.945
    99    5    0.0470    0.0000    1.1095   0.00403  3.3021E-02  1.6909E-03  3.3065E-02    2.931
   100    5    0.0441    0.0000    1.1123   0.00403  3.2271E-02  1.6459E-03  3.2313E-02    2.920
   101    5    0.0413    0.0000    1.1152   0.00403  3.1506E-02  1.6014E-03  3.1547E-02    2.910
   102    5    0.0384    0.0000    1.1180   0.00403  3.0725E-02  1.5574E-03  3.0765E-02    2.902
   103    5    0.0356    0.0000    1.1209   0.00403  2.9930E-02  1.5139E-03  2.9969E-02    2.896
   104    5    0.0327    0.0000    1.1237   0.00403  2.9122E-02  1.4710E-03  2.9159E-02    2.892
   105    5    0.0299    0.0000    1.1266   0.00403  2.8300E-02  1.4287E-03  2.8336E-02    2.890
   106    5    0.0270    0.0000    1.1294   0.00403  2.7466E-02  1.3870E-03  2.7501E-02    2.891
   107    5    0.0242    0.0000    1.1323   0.00403  2.6621E-02  1.3459E-03  2.6655E-02    2.894
   108    5    0.0214    0.0000    1.1351   0.00403  2.5764E-02  1.3056E-03  2.5797E-02    2.901
   109    5    0.0185    0.0000    1.1380   0.00403  2.4897E-02  1.2659E-03  2.4929E-02    2.911
   110    5    0.0157    0.0000    1.1408   0.00403  2.4019E-02  1.2270E-03  2.4051E-02    2.924
   111    5    0.0128    0.0000    1.1437   0.00403  2.3133E-02  1.1888E-03  2.3163E-02    2.942
   112    5    0.0100    0.0000    1.1465   0.00403  2.2236E-02  1.1514E-03  2.2266E-02    2.964
   113    5    0.0071    0.0000    1.1493   0.00403  2.1332E-02  1.1147E-03  2.1361E-02    2.991
   114    5    0.0043    0.0000    1.1522   0.00403  2.0419E-02  1.0788E-03  2.0448E-02    3.024
   115    5    0.0014    0.0000    1.1550   0.00403  1.9499E-02  1.0437E-03  1.9527E-02    3.064
   116    6    0.0000    0.0000    1.1541   0.00474  1.8487E-02  1.0058E-03  1.8515E-02    3.114
   117    6    0.0000    0.0000    1.1493   0.00474  1.7376E-02  9.6191E-04  1.7403E-02    3.169
   118    6    0.0000    0.0000    1.1446   0.00474  1.6246E-02  9.1471E-04  1.6272E-02    3.223
   119    6    0.0000    0.0000    1.1399   0.00474  1.5097E-02  8.6419E-04  1.5122E-02    3.276
   120    6    0.0000    0.0000    1.1351   0.00474  1.3929E-02  8.1035E-04  1.3953E-02    3.329
   121    6    0.0000    0.0000    1.1304   0.00474  1.2743E-02  7.5318E-04  1.2765E-02    3.382
   122    6    0.0000    0.0000    1.1256   0.00474  1.1539E-02  6.9264E-04  1.1559E-02    3.435
   123    6    0.0000    0.0000    1.1209   0.00474  1.0315E-02  6.2871E-04  1.0335E-02    3.488
   124    6    0.0000    0.0000    1.1161   0.00474  9.0727E-03  5.6129E-04  9.0901E-03    3.540
   125    6    0.0000    0.0000    1.1114   0.00474  7.8094E-03  4.9027E-04  7.8248E-03    3.592
   126    6    0.0000    0.0000    1.1066   0.00474  6.5232E-03  4.1547E-04  6.5364E-03    3.644
   127    6    0.0000    0.0000    1.1019   0.00474  5.2102E-03  3.3659E-04  5.2210E-03    3.696
   128    6    0.0000    0.0000    1.0972   0.00474  3.8627E-03  2.5306E-04  3.8710E-03    3.748
   129    6    0.0000    0.0000    1.0924   0.00474  2.4640E-03  1.6367E-04  2.4694E-03    3.800
   130    6    0.0000    0.0000    1.0877   0.00474  9.3600E-04  6.3017E-05  9.3812E-04    3.852


                               ---------- POWER BUDGET ---------
                               INPUT POWER   =  3.2390E-02 Watts
                               RADIATED POWER=  3.1726E-02 Watts
                               STRUCTURE LOSS=  6.6456E-04 Watts
                               NETWORK LOSS  =  0.0000E+00 Watts
                               EFFICIENCY    =   97.95 Percent


                             ---------- RADIATION PATTERNS -----------

 ---- ANGLES -----     ----- POWER GAINS -----       ---- POLARIZATION ----   ---- E(THETA) ----    ----- E(PHI) ------
  THETA      PHI       VERTC    HORIZ    TOTAL       AXIAL      TILT  SENSE   MAGNITUDE    PHASE    MAGNITUDE     PHASE
 DEGREES   DEGREES        DB       DB       DB       RATIO   DEGREES            VOLTS/M   DEGREES     VOLTS/M   DEGREES
   90.00      0.00   -999.99  -999.99  -999.99      0.0000      0.00         1.2112E-10    -13.77  0.0000E+00      0.00
   89.00      0.00    -11.12  -999.99   -11.12      0.0000     -0.00 LINEAR  3.8734E-01    166.74  0.0000E+00      0.00
   88.00      0.00     -5.71  -999.99    -5.71      0.0000     -0.00 LINEAR  7.2246E-01    167.43  0.0000E+00      0.00
   87.00      0.00     -2.82  -999.99    -2.82      0.0000     -0.00 LINEAR  1.0075E+00    168.32  0.0000E+00      0.00
   86.00      0.00     -0.98  -999.99    -0.98      0.0000     -0.00 LINEAR  1.2446E+00    169.43  0.0000E+00      0.00
   85.00      0.00      0.26  -999.99     0.26      0.0000     -0.00 LINEAR  1.4362E+00    170.78  0.0000E+00      0.00
   84.00      0.00      1.12  -999.99     1.12      0.0000     -0.00 LINEAR  1.5848E+00    172.41  0.0000E+00      0.00
   83.00      0.00      1.69  -999.99     1.69      0.0000     -0.00 LINEAR  1.6936E+00    174.33  0.0000E+00      0.00
   82.00      0.00      2.06  -999.99     2.06      0.0000     -0.00 LINEAR  1.7660E+00    176.59  0.0000E+00      0.00
   81.00      0.00      2.25  -999.99     2.25      0.0000     -0.00 LINEAR  1.8061E+00    179.24  0.0000E+00      0.00
   80.00      0.00      2.31  -999.99     2.31      0.0000     -0.00 LINEAR  1.8184E+00   -177.67  0.0000E+00      0.00
   79.00      0.00      2.26  -999.99     2.26      0.0000     -0.00 LINEAR  1.8078E+00   -174.09  0.0000E+00      0.00
   78.00      0.00      2.13  -999.99     2.13      0.0000     -0.00 LINEAR  1.7799E+00   -169.96  0.0000E+00      0.00
   77.00      0.00      1.93  -999.99     1.93      0.0000     -0.00 LINEAR  1.7404E+00   -165.23  0.0000E+00      0.00
   76.00      0.00      1.70  -999.99     1.70      0.0000     -0.00 LINEAR  1.6955E+00   -159.87  0.0000E+00      0.00
   75.00      0.00      1.47  -999.99     1.47      0.0000     -0.00 LINEAR  1.6513E+00   -153.88  0.0000E+00      0.00
   74.00      0.00      1.27  -999.99     1.27      0.0000     -0.00 LINEAR  1.6135E+00   -147.32  0.0000E+00      0.00
   73.00      0.00      1.13  -999.99     1.13      0.0000     -0.00 LINEAR  1.5868E+00   -140.30  0.0000E+00      0.00
   72.00      0.00      1.06  -999.99     1.06      0.0000     -0.00 LINEAR  1.5745E+00   -133.02  0.0000E+00      0.00
   71.00      0.00      1.08  -999.99     1.08      0.0000     -0.00 LINEAR  1.5780E+00   -125.70  0.0000E+00      0.00
   70.00      0.00      1.18  -999.99     1.18      0.0000     -0.00 LINEAR  1.5966E+00   -118.55  0.0000E+00      0.00
   69.00      0.00      1.35  -999.99     1.35      0.0000     -0.00 LINEAR  1.6280E+00   -111.78  0.0000E+00      0.00
   68.00      0.00      1.56  -999.99     1.56      0.0000     -0.00 LINEAR  1.6685E+00   -105.49  0.0000E+00      0.00
   67.00      0.00      1.80  -999.99     1.80      0.0000     -0.00 LINEAR  1.7138E+00    -99.74  0.0000E+00      0.00
   66.00      0.00      2.03  -999.99     2.03      0.0000     -0.00 LINEAR  1.7598E+00    -94.54  0.0000E+00      0.00
   65.00      0.00      2.24  -999.99     2.24      0.0000      0.00 LINEAR  1.8026E+00    -89.85  0.0000E+00      0.00
   64.00      0.00      2.41  -999.99     2.41      0.0000      0.00 LINEAR  1.8389E+00    -85.61  0.0000E+00      0.00
   63.00      0.00      2.53  -999.99     2.53      0.0000      0.00 LINEAR  1.8659E+00    -81.77  0.0000E+00      0.00
   62.00      0.00      2.61  -999.99     2.61      0.0000      0.00 LINEAR  1.8816E+00    -78.25  0.0000E+00      0.00
   61.00      0.00      2.62  -999.99     2.62      0.0000      0.00 LINEAR  1.8846E+00    -74.99  0.0000E+00      0.00
   60.00      0.00      2.57  -999.99     2.57      0.0000      0.00 LINEAR  1.8741E+00    -71.94  0.0000E+00      0.00
   59.00      0.00      2.46  -999.99     2.46      0.0000      0.00 LINEAR  1.8498E+00    -69.03  0.0000E+00      0.00
   58.00      0.00      2.28  -999.99     2.28      0.0000      0.00 LINEAR  1.8117E+00    -66.22  0.0000E+00      0.00
   57.00      0.00      2.03  -999.99     2.03      0.0000      0.00 LINEAR  1.7604E+00    -63.46  0.0000E+00      0.00
   56.00      0.00      1.71  -999.99     1.71      0.0000      0.00 LINEAR  1.6968E+00    -60.70  0.0000E+00      0.00
   55.00      0.00      1.32  -999.99     1.32      0.0000      0.00 LINEAR  1.6220E+00    -57.88  0.0000E+00      0.00
   54.00      0.00      0.85  -999.99     0.85      0.0000      0.00 LINEAR  1.5374E+00    -54.94  0.0000E+00      0.00
   53.00      0.00      0.31  -999.99     0.31      0.0000      0.00 LINEAR  1.4446E+00    -51.81  0.0000E+00      0.00
   52.00      0.00     -0.30  -999.99    -0.30      0.0000      0.00 LINEAR  1.3456E+00    -48.43  0.0000E+00      0.00
   51.00      0.00     -1.00  -999.99    -1.00      0.0000      0.00 LINEAR  1.2423E+00    -44.67  0.0000E+00      0.00
   50.00      0.00     -1.77  -999.99    -1.77      0.0000      0.00 LINEAR  1.1370E+00    -40.44  0.0000E+00      0.00
   49.00      0.00     -2.61  -999.99    -2.61      0.0000      0.00 LINEAR  1.0322E+00    -35.56  0.0000E+00      0.00
   48.00      0.00     -3.51  -999.99    -3.51      0.0000      0.00 LINEAR  9.3070E-01    -29.86  0.0000E+00      0.00
   47.00      0.00     -4.44  -999.99    -4.44      0.0000      0.00 LINEAR  8.3582E-01    -23.11  0.0000E+00      0.00
   46.00      0.00     -5.37  -999.99    -5.37      0.0000      0.00 LINEAR  7.5121E-01    -15.10  0.0000E+00      0.00
   45.00      0.00     -6.22  -999.99    -6.22      0.0000      0.00 LINEAR  6.8096E-01     -5.68  0.0000E+00      0.00
   44.00      0.00     -6.91  -999.99    -6.91      0.0000      0.00 LINEAR  6.2909E-01      5.09  0.0000E+00      0.00
   43.00      0.00     -7.34  -999.99    -7.34      0.0000      0.00 LINEAR  5.9861E-01     16.80  0.0000E+00      0.00
   42.00      0.00     -7.46  -999.99    -7.46      0.0000      0.00 LINEAR  5.9025E-01     28.70  0.0000E+00      0.00
   41.00      0.00     -7.29  -999.99    -7.29      0.0000      0.00 LINEAR  6.0185E-01     39.97  0.0000E+00      0.00
   40.00      0.00     -6.91  -999.99    -6.91      0.0000      0.00 LINEAR  6.2902E-01     50.00  0.0000E+00      0.00
   39.00      0.00     -6.40  -999.99    -6.40      0.0000      0.00 LINEAR  6.6663E-01     58.58  0.0000E+00      0.00
   38.00      0.00     -5.86  -999.99    -5.86      0.0000      0.00 LINEAR  7.0997E-01     65.77  0.0000E+00      0.00
   37.00      0.00     -5.32  -999.99    -5.32      0.0000      0.00 LINEAR  7.5527E-01     71.76  0.0000E+00      0.00
   36.00      0.00     -4.82  -999.99    -4.82      0.0000      0.00 LINEAR  7.9980E-01     76.79  0.0000E+00      0.00
   35.00      0.00     -4.38  -999.99    -4.38      0.0000      0.00 LINEAR  8.4163E-01     81.03  0.0000E+00      0.00
   34.00      0.00     -4.00  -999.99    -4.00      0.0000      0.00 LINEAR  8.7943E-01     84.67  0.0000E+00      0.00
   33.00      0.00     -3.68  -999.99    -3.68      0.0000      0.00 LINEAR  9.1239E-01     87.83  0.0000E+00      0.00
   32.00      0.00     -3.42  -999.99    -3.42      0.0000     -0.00 LINEAR  9.3999E-01     90.61  0.0000E+00      0.00
   31.00      0.00     -3.22  -999.99    -3.22      0.0000     -0.00 LINEAR  9.6199E-01     93.09  0.0000E+00      0.00
   30.00      0.00     -3.07  -999.99    -3.07      0.0000     -0.00 LINEAR  9.7832E-01     95.33  0.0000E+00      0.00
   29.00      0.00     -2.98  -999.99    -2.98      0.0000     -0.00 LINEAR  9.8906E-01     97.39  0.0000E+00      0.00
   28.00      0.00     -2.93  -999.99    -2.93      0.0000     -0.00 LINEAR  9.9438E-01     99.29  0.0000E+00      0.00
   27.00      0.00     -2.93  -999.99    -2.93      0.0000     -0.00 LINEAR  9.9453E-01    101.08  0.0000E+00      0.00
   26.00      0.00     -2.97  -999.99    -2.97      0.0000     -0.00 LINEAR  9.8982E-01    102.77  0.0000E+00      0.00
   25.00      0.00     -3.05  -999.99    -3.05      0.0000     -0.00 LINEAR  9.8059E-01    104.40  0.0000E+00      0.00
   24.00      0.00     -3.17  -999.99    -3.17      0.0000     -0.00 LINEAR  9.6723E-01    105.97  0.0000E+00      0.00
   23.00      0.00     -3.33  -999.99    -3.33      0.0000     -0.00 LINEAR  9.5012E-01    107.52  0.0000E+00      0.00
   22.00      0.00     -3.52  -999.99    -3.52      0.0000     -0.00 LINEAR  9.2965E-01    109.04  0.0000E+00      0.00
   21.00      0.00     -3.74  -999.99    -3.74      0.0000     -0.00 LINEAR  9.0622E-01    110.57  0.0000E+00      0.00
   20.00      0.00     -3.99  -999.99    -3.99      0.0000     -0.00 LINEAR  8.8021E-01    112.12  0.0000E+00      0.00
   19.00      0.00     -4.27  -999.99    -4.27      0.0000     -0.00 LINEAR  8.5200E-01    113.69  0.0000E+00      0.00
   18.00      0.00     -4.59  -999.99    -4.59      0.0000     -0.00 LINEAR  8.2196E-01    115.31  0.0000E+00      0.00
   17.00      0.00     -4.93  -999.99    -4.93      0.0000     -0.00 LINEAR  7.9044E-01    117.00  0.0000E+00      0.00
   16.00      0.00     -5.29  -999.99    -5.29      0.0000     -0.00 LINEAR  7.5777E-01    118.76  0.0000E+00      0.00
   15.00      0.00     -5.68  -999.99    -5.68      0.0000     -0.00 LINEAR  7.2428E-01    120.63  0.0000E+00      0.00
   14.00      0.00     -6.10  -999.99    -6.10      0.0000     -0.00 LINEAR  6.9029E-01    122.62  0.0000E+00      0.00
   13.00      0.00     -6.54  -999.99    -6.54      0.0000     -0.00 LINEAR  6.5609E-01    124.76  0.0000E+00      0.00
   12.00      0.00     -7.01  -999.99    -7.01      0.0000     -0.00 LINEAR  6.2198E-01    127.08  0.0000E+00      0.00
   11.00      0.00     -7.49  -999.99    -7.49      0.0000     -0.00 LINEAR  5.8826E-01    129.61  0.0000E+00      0.00
   10.00      0.00     -7.99  -999.99    -7.99      0.0000     -0.00 LINEAR  5.5524E-01    132.40  0.0000E+00      0.00
    9.00      0.00     -8.51  -999.99    -8.51      0.0000     -0.00 LINEAR  5.2324E-01    135.48  0.0000E+00      0.00
    8.00      0.00     -9.03  -999.99    -9.03      0.0000     -0.00 LINEAR  4.9260E-01    138.92  0.0000E+00      0.00
    7.00      0.00     -9.56  -999.99    -9.56      0.0000     -0.00 LINEAR  4.6370E-01    142.74  0.0000E+00      0.00
    6.00      0.00    -10.07  -999.99   -10.07      0.0000     -0.00 LINEAR  4.3698E-01    147.01  0.0000E+00      0.00
    5.00      0.00    -10.57  -999.99   -10.57      0.0000     -0.00 LINEAR  4.1290E-01    151.77  0.0000E+00      0.00
    4.00      0.00    -11.02  -999.99   -11.02      0.0000     -0.00 LINEAR  3.9199E-01    157.05  0.0000E+00      0.00
    3.00      0.00    -11.41  -999.99   -11.41      0.0000     -0.00 LINEAR  3.7478E-01    162.83  0.0000E+00      0.00
    2.00      0.00    -11.71  -999.99   -11.71      0.0000     -0.00 LINEAR  3.6181E-01    169.06  0.0000E+00      0.00
    1.00      0.00    -11.91  -999.99   -11.91      0.0000     -0.00 LINEAR  3.5355E-01    175.64  0.0000E+00      0.00
    0.00      0.00    -11.99  -999.99   -11.99      0.0000     -0.00 LINEAR  3.5032E-01   -177.59  0.0000E+00      0.00
   -1.00      0.00    -11.95  -999.99   -11.95      0.0000     -0.00 LINEAR  3.5227E-01   -170.83  0.0000E+00      0.00
   -2.00      0.00    -11.77  -999.99   -11.77      0.0000     -0.00 LINEAR  3.5930E-01   -164.27  0.0000E+00      0.00
   -3.00      0.00    -11.49  -999.99   -11.49      0.0000     -0.00 LINEAR  3.7114E-01   -158.08  0.0000E+00      0.00
   -4.00      0.00    -11.12  -999.99   -11.12      0.0000     -0.00 LINEAR  3.8734E-01   -152.39  0.0000E+00      0.00
   -5.00      0.00    -10.68  -999.99   -10.68      0.0000     -0.00 LINEAR  4.0739E-01   -147.25  0.0000E+00      0.00
   -6.00      0.00    -10.20  -999.99   -10.20      0.0000     -0.00 LINEAR  4.3073E-01   -142.69  0.0000E+00      0.00
   -7.00      0.00     -9.69  -999.99    -9.69      0.0000     -0.00 LINEAR  4.5685E-01   -138.69  0.0000E+00      0.00
   -8.00      0.00     -9.16  -999.99    -9.16      0.0000     -0.00 LINEAR  4.8524E-01   -135.20  0.0000E+00      0.00
   -9.00      0.00     -8.64  -999.99    -8.64      0.0000     -0.00 LINEAR  5.1547E-01   -132.19  0.0000E+00      0.00
  -10.00      0.00     -8.12  -999.99    -8.12      0.0000     -0.00 LINEAR  5.4715E-01   -129.60  0.0000E+00      0.00
  -11.00      0.00     -7.62  -999.99    -7.62      0.0000     -0.00 LINEAR  5.7991E-01   -127.38  0.0000E+00      0.00
  -12.00      0.00     -7.13  -999.99    -7.13      0.0000     -0.00 LINEAR  6.1342E-01   -125.48  0.0000E+00      0.00
  -13.00      0.00     -6.66  -999.99    -6.66      0.0000     -0.00 LINEAR  6.4738E-01   -123.88  0.0000E+00      0.00
  -14.00      0.00     -6.21  -999.99    -6.21      0.0000     -0.00 LINEAR  6.8147E-01   -122.54  0.0000E+00      0.00
  -15.00      0.00     -5.79  -999.99    -5.79      0.0000     -0.00 LINEAR  7.1540E-01   -121.43  0.0000E+00      0.00
  -16.00      0.00     -5.39  -999.99    -5.39      0.0000     -0.00 LINEAR  7.4885E-01   -120.52  0.0000E+00      0.00
  -17.00      0.00     -5.02  -999.99    -5.02      0.0000     -0.00 LINEAR  7.8151E-01   -119.80  0.0000E+00      0.00
  -18.00      0.00     -4.68  -999.99    -4.68      0.0000     -0.00 LINEAR  8.1306E-01   -119.24  0.0000E+00      0.00
  -19.00      0.00     -4.36  -999.99    -4.36      0.0000     -0.00 LINEAR  8.4316E-01   -118.85  0.0000E+00      0.00
  -20.00      0.00     -4.08  -999.99    -4.08      0.0000     -0.00 LINEAR  8.7145E-01   -118.60  0.0000E+00      0.00
  -21.00      0.00     -3.82  -999.99    -3.82      0.0000     -0.00 LINEAR  8.9758E-01   -118.49  0.0000E+00      0.00
  -22.00      0.00     -3.60  -999.99    -3.60      0.0000     -0.00 LINEAR  9.2115E-01   -118.53  0.0000E+00      0.00
  -23.00      0.00     -3.40  -999.99    -3.40      0.0000     -0.00 LINEAR  9.4179E-01   -118.69  0.0000E+00      0.00
  -24.00      0.00     -3.25  -999.99    -3.25      0.0000     -0.00 LINEAR  9.5910E-01   -118.99  0.0000E+00      0.00
  -25.00      0.00     -3.12  -999.99    -3.12      0.0000     -0.00 LINEAR  9.7267E-01   -119.43  0.0000E+00      0.00
  -26.00      0.00     -3.04  -999.99    -3.04      0.0000     -0.00 LINEAR  9.8214E-01   -120.02  0.0000E+00      0.00
  -27.00      0.00     -3.00  -999.99    -3.00      0.0000     -0.00 LINEAR  9.8712E-01   -120.76  0.0000E+00      0.00
  -28.00      0.00     -2.99  -999.99    -2.99      0.0000     -0.00 LINEAR  9.8726E-01   -121.67  0.0000E+00      0.00
  -29.00      0.00     -3.04  -999.99    -3.04      0.0000     -0.00 LINEAR  9.8225E-01   -122.77  0.0000E+00      0.00
  -30.00      0.00     -3.13  -999.99    -3.13      0.0000     -0.00 LINEAR  9.7185E-01   -124.09  0.0000E+00      0.00
  -31.00      0.00     -3.27  -999.99    -3.27      0.0000     -0.00 LINEAR  9.5586E-01   -125.65  0.0000E+00      0.00
  -32.00      0.00     -3.47  -999.99    -3.47      0.0000     -0.00 LINEAR  9.3423E-01   -127.51  0.0000E+00      0.00
  -33.00      0.00     -3.73  -999.99    -3.73      0.0000     -0.00 LINEAR  9.0700E-01   -129.71  0.0000E+00      0.00
  -34.00      0.00     -4.05  -999.99    -4.05      0.0000     -0.00 LINEAR  8.7442E-01   -132.33  0.0000E+00      0.00
  -35.00      0.00     -4.43  -999.99    -4.43      0.0000     -0.00 LINEAR  8.3700E-01   -135.48  0.0000E+00      0.00
  -36.00      0.00     -4.87  -999.99    -4.87      0.0000     -0.00 LINEAR  7.9557E-01   -139.27  0.0000E+00      0.00
  -37.00      0.00     -5.37  -999.99    -5.37      0.0000     -0.00 LINEAR  7.5141E-01   -143.87  0.0000E+00      0.00
  -38.00      0.00     -5.90  -999.99    -5.90      0.0000     -0.00 LINEAR  7.0646E-01   -149.48  0.0000E+00      0.00
  -39.00      0.00     -6.45  -999.99    -6.45      0.0000     -0.00 LINEAR  6.6345E-01   -156.31  0.0000E+00      0.00
  -40.00      0.00     -6.95  -999.99    -6.95      0.0000     -0.00 LINEAR  6.2613E-01   -164.56  0.0000E+00      0.00
  -41.00      0.00     -7.33  -999.99    -7.33      0.0000     -0.00 LINEAR  5.9917E-01   -174.28  0.0000E+00      0.00
  -42.00      0.00     -7.50  -999.99    -7.50      0.0000     -0.00 LINEAR  5.8773E-01    174.74  0.0000E+00      0.00
  -43.00      0.00     -7.38  -999.99    -7.38      0.0000     -0.00 LINEAR  5.9616E-01    163.10  0.0000E+00      0.00
  -44.00      0.00     -6.94  -999.99    -6.94      0.0000     -0.00 LINEAR  6.2663E-01    151.63  0.0000E+00      0.00
  -45.00      0.00     -6.25  -999.99    -6.25      0.0000     -0.00 LINEAR  6.7841E-01    141.09  0.0000E+00      0.00
  -46.00      0.00     -5.40  -999.99    -5.40      0.0000     -0.00 LINEAR  7.4851E-01    131.89  0.0000E+00      0.00
  -47.00      0.00     -4.47  -999.99    -4.47      0.0000     -0.00 LINEAR  8.3294E-01    124.07  0.0000E+00      0.00
  -48.00      0.00     -3.54  -999.99    -3.54      0.0000     -0.00 LINEAR  9.2763E-01    117.51  0.0000E+00      0.00
  -49.00      0.00     -2.64  -999.99    -2.64      0.0000     -0.00 LINEAR  1.0289E+00    111.98  0.0000E+00      0.00
  -50.00      0.00     -1.79  -999.99    -1.79      0.0000     -0.00 LINEAR  1.1335E+00    107.26  0.0000E+00      0.00
  -51.00      0.00     -1.02  -999.99    -1.02      0.0000     -0.00 LINEAR  1.2386E+00    103.16  0.0000E+00      0.00
  -52.00      0.00     -0.33  -999.99    -0.33      0.0000     -0.00 LINEAR  1.3418E+00     99.55  0.0000E+00      0.00
  -53.00      0.00      0.29  -999.99     0.29      0.0000     -0.00 LINEAR  1.4407E+00     96.28  0.0000E+00      0.00
  -54.00      0.00      0.83  -999.99     0.83      0.0000     -0.00 LINEAR  1.5334E+00     93.27  0.0000E+00      0.00
  -55.00      0.00      1.30  -999.99     1.30      0.0000     -0.00 LINEAR  1.6179E+00     90.44  0.0000E+00      0.00
  -56.00      0.00      1.69  -999.99     1.69      0.0000      0.00 LINEAR  1.6927E+00     87.71  0.0000E+00      0.00
  -57.00      0.00      2.01  -999.99     2.01      0.0000      0.00 LINEAR  1.7563E+00     85.04  0.0000E+00      0.00
  -58.00      0.00      2.26  -999.99     2.26      0.0000      0.00 LINEAR  1.8076E+00     82.36  0.0000E+00      0.00
  -59.00      0.00      2.44  -999.99     2.44      0.0000      0.00 LINEAR  1.8457E+00     79.63  0.0000E+00      0.00
  -60.00      0.00      2.55  -999.99     2.55      0.0000      0.00 LINEAR  1.8701E+00     76.80  0.0000E+00      0.00
  -61.00      0.00      2.60  -999.99     2.60      0.0000      0.00 LINEAR  1.8808E+00     73.81  0.0000E+00      0.00
  -62.00      0.00      2.59  -999.99     2.59      0.0000      0.00 LINEAR  1.8779E+00     70.62  0.0000E+00      0.00
  -63.00      0.00      2.52  -999.99     2.52      0.0000      0.00 LINEAR  1.8623E+00     67.15  0.0000E+00      0.00
  -64.00      0.00      2.39  -999.99     2.39      0.0000      0.00 LINEAR  1.8355E+00     63.36  0.0000E+00      0.00
  -65.00      0.00      2.22  -999.99     2.22      0.0000      0.00 LINEAR  1.7994E+00     59.17  0.0000E+00      0.00
  -66.00      0.00      2.01  -999.99     2.01      0.0000      0.00 LINEAR  1.7568E+00     54.52  0.0000E+00      0.00
  -67.00      0.00      1.78  -999.99     1.78      0.0000      0.00 LINEAR  1.7110E+00     49.36  0.0000E+00      0.00
  -68.00      0.00      1.55  -999.99     1.55      0.0000      0.00 LINEAR  1.6658E+00     43.65  0.0000E+00      0.00
  -69.00      0.00      1.34  -999.99     1.34      0.0000      0.00 LINEAR  1.6255E+00     37.39  0.0000E+00      0.00
  -70.00      0.00      1.17  -999.99     1.17      0.0000      0.00 LINEAR  1.5942E+00     30.64  0.0000E+00      0.00
  -71.00      0.00      1.07  -999.99     1.07      0.0000      0.00 LINEAR  1.5757E+00     23.53  0.0000E+00      0.00
  -72.00      0.00      1.05  -999.99     1.05      0.0000      0.00 LINEAR  1.5723E+00     16.23  0.0000E+00      0.00
  -73.00      0.00      1.12  -999.99     1.12      0.0000      0.00 LINEAR  1.5846E+00      8.97  0.0000E+00      0.00
  -74.00      0.00      1.26  -999.99     1.26      0.0000      0.00 LINEAR  1.6114E+00      1.97  0.0000E+00      0.00
  -75.00      0.00      1.46  -999.99     1.46      0.0000      0.00 LINEAR  1.6492E+00     -4.57  0.0000E+00      0.00
  -76.00      0.00      1.69  -999.99     1.69      0.0000      0.00 LINEAR  1.6934E+00    -10.55  0.0000E+00      0.00
  -77.00      0.00      1.92  -999.99     1.92      0.0000      0.00 LINEAR  1.7383E+00    -15.89  0.0000E+00      0.00
  -78.00      0.00      2.11  -999.99     2.11      0.0000      0.00 LINEAR  1.7778E+00    -20.61  0.0000E+00      0.00
  -79.00      0.00      2.25  -999.99     2.25      0.0000      0.00 LINEAR  1.8057E+00    -24.73  0.0000E+00      0.00
  -80.00      0.00      2.30  -999.99     2.30      0.0000      0.00 LINEAR  1.8163E+00    -28.30  0.0000E+00      0.00
  -81.00      0.00      2.24  -999.99     2.24      0.0000      0.00 LINEAR  1.8041E+00    -31.37  0.0000E+00      0.00
  -82.00      0.00      2.05  -999.99     2.05      0.0000      0.00 LINEAR  1.7641E+00    -34.01  0.0000E+00      0.00
  -83.00      0.00      1.68  -999.99     1.68      0.0000      0.00 LINEAR  1.6918E+00    -36.27  0.0000E+00      0.00
  -84.00      0.00      1.11  -999.99     1.11      0.0000      0.00 LINEAR  1.5831E+00    -38.19  0.0000E+00      0.00
  -85.00      0.00      0.25  -999.99     0.25      0.0000      0.00 LINEAR  1.4347E+00    -39.80  0.0000E+00      0.00
  -86.00      0.00     -0.99  -999.99    -0.99      0.0000      0.00 LINEAR  1.2433E+00    -41.15  0.0000E+00      0.00
  -87.00      0.00     -2.83  -999.99    -2.83      0.0000      0.00 LINEAR  1.0065E+00    -42.26  0.0000E+00      0.00
  -88.00      0.00     -5.72  -999.99    -5.72      0.0000      0.00 LINEAR  7.2172E-01    -43.15  0.0000E+00      0.00
  -89.00      0.00    -11.13  -999.99   -11.13      0.0000      0.00 LINEAR  3.8694E-01    -43.84  0.0000E+00      0.00
  -90.00      0.00   -999.99  -999.99  -999.99      0.0000      0.00         1.2099E-10    135.66  0.0000E+00      0.00



  DATA CARD No:  12 EN   0     0     0     0  0.00000E+00  0.00000E+00  0.00000E+00  0.00000E+00  0.00000E+00  0.00000E+00

  TOTAL RUN TIME: 1010 msec