


                                __________________________________________
                               |                                          |
                               | NUMERICAL ELECTROMAGNETICS CODE (nec2++) |
                               | Translated to 'C++' in Double Precision  |
                               |        Version 1.1.0 [2005-01-20]        |
                               |__________________________________________|



                               ---------------- COMMENTS ----------------
                                Center feed Horizontal Half-Wave Dipole over excellent ground
                               



                                -------- STRUCTURE SPECIFICATION --------
                                COORDINATES MUST BE INPUT IN
                                METERS OR BE SCALED TO METERS
                                BEFORE STRUCTURE INPUT IS ENDED
  WIRE                                                                                 SEG FIRST  LAST  TAG
   No:        X1         Y1         Z1         X2         Y2         Z2       RADIUS   No:   SEG   SEG  No:

     1   -139.0000     0.0000     6.0000   139.0000     0.0000     6.0000     0.0010   299     1   299    1

     TOTAL SEGMENTS USED: 299   SEGMENTS IN A SYMMETRIC CELL: 299   SYMMETRY FLAG: 0


                               ---------- SEGMENTATION DATA ----------
                                        COORDINATES IN METERS
                            I+ AND I- INDICATE THE SEGMENTS BEFORE AND AFTER I

   SEG    COORDINATES OF SEGM CENTER     SEGM    ORIENTATION ANGLES    WIRE    CONNECTION DATA   TAG
   No:       X         Y         Z      LENGTH     ALPHA      BETA    RADIUS    I-     I    I+   NO:
     1 -138.5351    0.0000    6.0000    0.9298    0.0000    0.0000    0.0010     0     1     2     1
     2 -137.6054    0.0000    6.0000    0.9298    0.0000    0.0000    0.0010     1     2     3     1
     3 -136.6756    0.0000    6.0000    0.9298    0.0000    0.0000    0.0010     2     3     4     1
     4 -135.7458    0.0000    6.0000    0.9298    0.0000    0.0000    0.0010     3     4     5     1
     5 -134.8161    0.0000    6.0000    0.9298    0.0000    0.0000    0.0010     4     5     6     1
     6 -133.8863    0.0000    6.0000    0.9298    0.0000    0.0000    0.0010     5     6     7     1
     7 -132.9565    0.0000    6.0000    0.9298    0.0000    0.0000    0.0010     6     7     8     1
     8 -132.0268    0.0000    6.0000    0.9298    0.0000    0.0000    0.0010     7     8     9     1
     9 -131.0970    0.0000    6.0000    0.9298    0.0000    0.0000    0.0010     8     9    10     1
    10 -130.1672    0.0000    6.0000    0.9298    0.0000    0.0000    0.0010     9    10    11     1
    11 -129.2375    0.0000    6.0000    0.9298    0.0000    0.0000    0.0010    10    11    12     1
    12 -128.3077    0.0000    6.0000    0.9298    0.0000    0.0000    0.0010    11    12    13     1
    13 -127.3779    0.0000    6.0000    0.9298    0.0000    0.0000    0.0010    12    13    14     1
    14 -126.4482    0.0000    6.0000    0.9298    0.0000    0.0000    0.0010    13    14    15     1
    15 -125.5184    0.0000    6.0000    0.9298    0.0000    0.0000    0.0010    14    15    16     1
    16 -124.5886    0.0000    6.0000    0.9298    0.0000    0.0000    0.0010    15    16    17     1
    17 -123.6589    0.0000    6.0000    0.9298    0.0000    0.0000    0.0010    16    17    18     1
    18 -122.7291    0.0000    6.0000    0.9298    0.0000    0.0000    0.0010    17    18    19     1
    19 -121.7993    0.0000    6.0000    0.9298    0.0000    0.0000    0.0010    18    19    20     1
    20 -120.8696    0.0000    6.0000    0.9298    0.0000    0.0000    0.0010    19    20    21     1
    21 -119.9398    0.0000    6.0000    0.9298    0.0000    0.0000    0.0010    20    21    22     1
    22 -119.0100    0.0000    6.0000    0.9298    0.0000    0.0000    0.0010    21    22    23     1
    23 -118.0803    0.0000    6.0000    0.9298    0.0000    0.0000    0.0010    22    23    24     1
    24 -117.1505    0.0000    6.0000    0.9298    0.0000    0.0000    0.0010    23    24    25     1
    25 -116.2207    0.0000    6.0000    0.9298    0.0000    0.0000    0.0010    24    25    26     1
    26 -115.2910    0.0000    6.0000    0.9298    0.0000    0.0000    0.0010    25    26    27     1
    27 -114.3612    0.0000    6.0000    0.9298    0.0000    0.0000    0.0010    26    27    28     1
    28 -113.4314    0.0000    6.0000    0.9298    0.0000    0.0000    0.0010    27    28    29     1
    29 -112.5017    0.0000    6.0000    0.9298    0.0000    0.0000    0.0010    28    29    30     1
    30 -111.5719    0.0000    6.0000    0.9298    0.0000    0.0000    0.0010    29    30    31     1
    31 -110.6421    0.0000    6.0000    0.9298    0.0000    0.0000    0.0010    30    31    32     1
    32 -109.7124    0.0000    6.0000    0.9298    0.0000    0.0000    0.0010    31    32    33     1
    33 -108.7826    0.0000    6.0000    0.9298    0.0000    0.0000    0.0010    32    33    34     1
    34 -107.8528    0.0000    6.0000    0.9298    0.0000    0.0000    0.0010    33    34    35     1
    35 -106.9231    0.0000    6.0000    0.9298    0.0000    0.0000    0.0010    34    35    36     1
    36 -105.9933    0.0000    6.0000    0.9298    0.0000    0.0000    0.0010    35    36    37     1
    37 -105.0635    0.0000    6.0000    0.9298    0.0000    0.0000    0.0010    36    37    38     1
    38 -104.1338    0.0000    6.0000    0.9298    0.0000    0.0000    0.0010    37    38    39     1
    39 -103.2040    0.0000    6.0000    0.9298    0.0000    0.0000    0.0010    38    39    40     1
    40 -102.2742    0.0000    6.0000    0.9298    0.0000    0.0000    0.0010    39    40    41     1
    41 -101.3445    0.0000    6.0000    0.9298    0.0000    0.0000    0.0010    40    41    42     1
    42 -100.4147    0.0000    6.0000    0.9298    0.0000    0.0000    0.0010    41    42    43     1
    43  -99.4849    0.0000    6.0000    0.9298    0.0000    0.0000    0.0010    42    43    44     1
    44  -98.5552    0.0000    6.0000    0.9298    0.0000    0.0000    0.0010    43    44    45     1
    45  -97.6254    0.0000    6.0000    0.9298    0.0000    0.0000    0.0010    44    45    46     1
    46  -96.6957    0.0000    6.0000    0.9298    0.0000    0.0000    0.0010    45    46    47     1
    47  -95.7659    0.0000    6.0000    0.9298    0.0000    0.0000    0.0010    46    47    48     1
    48  -94.8361    0.0000    6.0000    0.9298    0.0000    0.0000    0.0010    47    48    49     1
    49  -93.9064    0.0000    6.0000    0.9298    0.0000    0.0000    0.0010    48    49    50     1
    50  -92.9766    0.0000    6.0000    0.9298    0.0000    0.0000    0.0010    49    50    51     1
    51  -92.0468    0.0000    6.0000    0.9298    0.0000    0.0000    0.0010    50    51    52     1
    52  -91.1171    0.0000    6.0000    0.9298    0.0000    0.0000    0.0010    51    52    53     1
    53  -90.1873    0.0000    6.0000    0.9298    0.0000    0.0000    0.0010    52    53    54     1
    54  -89.2575    0.0000    6.0000    0.9298    0.0000    0.0000    0.0010    53    54    55     1
    55  -88.3278    0.0000    6.0000    0.9298    0.0000    0.0000    0.0010    54    55    56     1
    56  -87.3980    0.0000    6.0000    0.9298    0.0000    0.0000    0.0010    55    56    57     1
    57  -86.4682    0.0000    6.0000    0.9298    0.0000    0.0000    0.0010    56    57    58     1
    58  -85.5385    0.0000    6.0000    0.9298    0.0000    0.0000    0.0010    57    58    59     1
    59  -84.6087    0.0000    6.0000    0.9298    0.0000    0.0000    0.0010    58    59    60     1
    60  -83.6789    0.0000    6.0000    0.9298    0.0000    0.0000    0.0010    59    60    61     1
    61  -82.7492    0.0000    6.0000    0.9298    0.0000    0.0000    0.0010    60    61    62     1
    62  -81.8194    0.0000    6.0000    0.9298    0.0000    0.0000    0.0010    61    62    63     1
    63  -80.8896    0.0000    6.0000    0.9298    0.0000    0.0000    0.0010    62    63    64     1
    64  -79.9599    0.0000    6.0000    0.9298    0.0000    0.0000    0.0010    63    64    65     1
    65  -79.0301    0.0000    6.0000    0.9298    0.0000    0.0000    0.0010    64    65    66     1
    66  -78.1003    0.0000    6.0000    0.9298    0.0000    0.0000    0.0010    65    66    67     1
    67  -77.1706    0.0000    6.0000    0.9298    0.0000    0.0000    0.0010    66    67    68     1
    68  -76.2408    0.0000    6.0000    0.9298    0.0000    0.0000    0.0010    67    68    69     1
    69  -75.3110    0.0000    6.0000    0.9298    0.0000    0.0000    0.0010    68    69    70     1
    70  -74.3813    0.0000    6.0000    0.9298    0.0000    0.0000    0.0010    69    70    71     1
    71  -73.4515    0.0000    6.0000    0.9298    0.0000    0.0000    0.0010    70    71    72     1
    72  -72.5217    0.0000    6.0000    0.9298    0.0000    0.0000    0.0010    71    72    73     1
    73  -71.5920    0.0000    6.0000    0.9298    0.0000    0.0000    0.0010    72    73    74     1
    74  -70.6622    0.0000    6.0000    0.9298    0.0000    0.0000    0.0010    73    74    75     1
    75  -69.7324    0.0000    6.0000    0.9298    0.0000    0.0000    0.0010    74    75    76     1
    76  -68.8027    0.0000    6.0000    0.9298    0.0000    0.0000    0.0010    75    76    77     1
    77  -67.8729    0.0000    6.0000    0.9298    0.0000    0.0000    0.0010    76    77    78     1
    78  -66.9431    0.0000    6.0000    0.9298    0.0000    0.0000    0.0010    77    78    79     1
    79  -66.0134    0.0000    6.0000    0.9298    0.0000    0.0000    0.0010    78    79    80     1
    80  -65.0836    0.0000    6.0000    0.9298    0.0000    0.0000    0.0010    79    80    81     1
    81  -64.1538    0.0000    6.0000    0.9298    0.0000    0.0000    0.0010    80    81    82     1
    82  -63.2241    0.0000    6.0000    0.9298    0.0000    0.0000    0.0010    81    82    83     1
    83  -62.2943    0.0000    6.0000    0.9298    0.0000    0.0000    0.0010    82    83    84     1
    84  -61.3645    0.0000    6.0000    0.9298    0.0000    0.0000    0.0010    83    84    85     1
    85  -60.4348    0.0000    6.0000    0.9298    0.0000    0.0000    0.0010    84    85    86     1
    86  -59.5050    0.0000    6.0000    0.9298    0.0000    0.0000    0.0010    85    86    87     1
    87  -58.5753    0.0000    6.0000    0.9298    0.0000    0.0000    0.0010    86    87    88     1
    88  -57.6455    0.0000    6.0000    0.9298    0.0000    0.0000    0.0010    87    88    89     1
    89  -56.7157    0.0000    6.0000    0.9298    0.0000    0.0000    0.0010    88    89    90     1
    90  -55.7860    0.0000    6.0000    0.9298    0.0000    0.0000    0.0010    89    90    91     1
    91  -54.8562    0.0000    6.0000    0.9298    0.0000    0.0000    0.0010    90    91    92     1
    92  -53.9264    0.0000    6.0000    0.9298    0.0000    0.0000    0.0010    91    92    93     1
    93  -52.9967    0.0000    6.0000    0.9298    0.0000    0.0000    0.0010    92    93    94     1
    94  -52.0669    0.0000    6.0000    0.9298    0.0000    0.0000    0.0010    93    94    95     1
    95  -51.1371    0.0000    6.0000    0.9298    0.0000    0.0000    0.0010    94    95    96     1
    96  -50.2074    0.0000    6.0000    0.9298    0.0000    0.0000    0.0010    95    96    97     1
    97  -49.2776    0.0000    6.0000    0.9298    0.0000    0.0000    0.0010    96    97    98     1
    98  -48.3478    0.0000    6.0000    0.9298    0.0000    0.0000    0.0010    97    98    99     1
    99  -47.4181    0.0000    6.0000    0.9298    0.0000    0.0000    0.0010    98    99   100     1
   100  -46.4883    0.0000    6.0000    0.9298    0.0000    0.0000    0.0010    99   100   101     1
   101  -45.5585    0.0000    6.0000    0.9298    0.0000    0.0000    0.0010   100   101   102     1
   102  -44.6288    0.0000    6.0000    0.9298    0.0000    0.0000    0.0010   101   102   103     1
   103  -43.6990    0.0000    6.0000    0.9298    0.0000    0.0000    0.0010   102   103   104     1
   104  -42.7692    0.0000    6.0000    0.9298    0.0000    0.0000    0.0010   103   104   105     1
   105  -41.8395    0.0000    6.0000    0.9298    0.0000    0.0000    0.0010   104   105   106     1
   106  -40.9097    0.0000    6.0000    0.9298    0.0000    0.0000    0.0010   105   106   107     1
   107  -39.9799    0.0000    6.0000    0.9298    0.0000    0.0000    0.0010   106   107   108     1
   108  -39.0502    0.0000    6.0000    0.9298    0.0000    0.0000    0.0010   107   108   109     1
   109  -38.1204    0.0000    6.0000    0.9298    0.0000    0.0000    0.0010   108   109   110     1
   110  -37.1906    0.0000    6.0000    0.9298    0.0000    0.0000    0.0010   109   110   111     1
   111  -36.2609    0.0000    6.0000    0.9298    0.0000    0.0000    0.0010   110   111   112     1
   112  -35.3311    0.0000    6.0000    0.9298    0.0000    0.0000    0.0010   111   112   113     1
   113  -34.4013    0.0000    6.0000    0.9298    0.0000    0.0000    0.0010   112   113   114     1
   114  -33.4716    0.0000    6.0000    0.9298    0.0000    0.0000    0.0010   113   114   115     1
   115  -32.5418    0.0000    6.0000    0.9298    0.0000    0.0000    0.0010   114   115   116     1
   116  -31.6120    0.0000    6.0000    0.9298    0.0000    0.0000    0.0010   115   116   117     1
   117  -30.6823    0.0000    6.0000    0.9298    0.0000    0.0000    0.0010   116   117   118     1
   118  -29.7525    0.0000    6.0000    0.9298    0.0000    0.0000    0.0010   117   118   119     1
   119  -28.8227    0.0000    6.0000    0.9298    0.0000    0.0000    0.0010   118   119   120     1
   120  -27.8930    0.0000    6.0000    0.9298    0.0000    0.0000    0.0010   119   120   121     1
   121  -26.9632    0.0000    6.0000    0.9298    0.0000    0.0000    0.0010   120   121   122     1
   122  -26.0334    0.0000    6.0000    0.9298    0.0000    0.0000    0.0010   121   122   123     1
   123  -25.1037    0.0000    6.0000    0.9298    0.0000    0.0000    0.0010   122   123   124     1
   124  -24.1739    0.0000    6.0000    0.9298    0.0000    0.0000    0.0010   123   124   125     1
   125  -23.2441    0.0000    6.0000    0.9298    0.0000    0.0000    0.0010   124   125   126     1
   126  -22.3144    0.0000    6.0000    0.9298    0.0000    0.0000    0.0010   125   126   127     1
   127  -21.3846    0.0000    6.0000    0.9298    0.0000    0.0000    0.0010   126   127   128     1
   128  -20.4548    0.0000    6.0000    0.9298    0.0000    0.0000    0.0010   127   128   129     1
   129  -19.5251    0.0000    6.0000    0.9298    0.0000    0.0000    0.0010   128   129   130     1
   130  -18.5953    0.0000    6.0000    0.9298    0.0000    0.0000    0.0010   129   130   131     1
   131  -17.6656    0.0000    6.0000    0.9298    0.0000    0.0000    0.0010   130   131   132     1
   132  -16.7358    0.0000    6.0000    0.9298    0.0000    0.0000    0.0010   131   132   133     1
   133  -15.8060    0.0000    6.0000    0.9298    0.0000    0.0000    0.0010   132   133   134     1
   134  -14.8763    0.0000    6.0000    0.9298    0.0000    0.0000    0.0010   133   134   135     1
   135  -13.9465    0.0000    6.0000    0.9298    0.0000    0.0000    0.0010   134   135   136     1
   136  -13.0167    0.0000    6.0000    0.9298    0.0000    0.0000    0.0010   135   136   137     1
   137  -12.0870    0.0000    6.0000    0.9298    0.0000    0.0000    0.0010   136   137   138     1
   138  -11.1572    0.0000    6.0000    0.9298    0.0000    0.0000    0.0010   137   138   139     1
   139  -10.2274    0.0000    6.0000    0.9298    0.0000    0.0000    0.0010   138   139   140     1
   140   -9.2977    0.0000    6.0000    0.9298    0.0000    0.0000    0.0010   139   140   141     1
   141   -8.3679    0.0000    6.0000    0.9298    0.0000    0.0000    0.0010   140   141   142     1
   142   -7.4381    0.0000    6.0000    0.9298    0.0000    0.0000    0.0010   141   142   143     1
   143   -6.5084    0.0000    6.0000    0.9298    0.0000    0.0000    0.0010   142   143   144     1
   144   -5.5786    0.0000    6.0000    0.9298    0.0000    0.0000    0.0010   143   144   145     1
   145   -4.6488    0.0000    6.0000    0.9298    0.0000    0.0000    0.0010   144   145   146     1
   146   -3.7191    0.0000    6.0000    0.9298    0.0000    0.0000    0.0010   145   146   147     1
   147   -2.7893    0.0000    6.0000    0.9298    0.0000    0.0000    0.0010   146   147   148     1
   148   -1.8595    0.0000    6.0000    0.9298    0.0000    0.0000    0.0010   147   148   149     1
   149   -0.9298    0.0000    6.0000    0.9298    0.0000    0.0000    0.0010   148   149   150     1
   150   -0.0000    0.0000    6.0000    0.9298    0.0000    0.0000    0.0010   149   150   151     1
   151    0.9298    0.0000    6.0000    0.9298    0.0000    0.0000    0.0010   150   151   152     1
   152    1.8595    0.0000    6.0000    0.9298    0.0000    0.0000    0.0010   151   152   153     1
   153    2.7893    0.0000    6.0000    0.9298    0.0000    0.0000    0.0010   152   153   154     1
   154    3.7191    0.0000    6.0000    0.9298    0.0000    0.0000    0.0010   153   154   155     1
   155    4.6488    0.0000    6.0000    0.9298    0.0000    0.0000    0.0010   154   155   156     1
   156    5.5786    0.0000    6.0000    0.9298    0.0000    0.0000    0.0010   155   156   157     1
   157    6.5084    0.0000    6.0000    0.9298    0.0000    0.0000    0.0010   156   157   158     1
   158    7.4381    0.0000    6.0000    0.9298    0.0000    0.0000    0.0010   157   158   159     1
   159    8.3679    0.0000    6.0000    0.9298    0.0000    0.0000    0.0010   158   159   160     1
   160    9.2977    0.0000    6.0000    0.9298    0.0000    0.0000    0.0010   159   160   161     1
   161   10.2274    0.0000    6.0000    0.9298    0.0000    0.0000    0.0010   160   161   162     1
   162   11.1572    0.0000    6.0000    0.9298    0.0000    0.0000    0.0010   161   162   163     1
   163   12.0870    0.0000    6.0000    0.9298    0.0000    0.0000    0.0010   162   163   164     1
   164   13.0167    0.0000    6.0000    0.9298    0.0000    0.0000    0.0010   163   164   165     1
   165   13.9465    0.0000    6.0000    0.9298    0.0000    0.0000    0.0010   164   165   166     1
   166   14.8763    0.0000    6.0000    0.9298    0.0000    0.0000    0.0010   165   166   167     1
   167   15.8060    0.0000    6.0000    0.9298    0.0000    0.0000    0.0010   166   167   168     1
   168   16.7358    0.0000    6.0000    0.9298    0.0000    0.0000    0.0010   167   168   169     1
   169   17.6656    0.0000    6.0000    0.9298    0.0000    0.0000    0.0010   168   169   170     1
   170   18.5953    0.0000    6.0000    0.9298    0.0000    0.0000    0.0010   169   170   171     1
   171   19.5251    0.0000    6.0000    0.9298    0.0000    0.0000    0.0010   170   171   172     1
   172   20.4548    0.0000    6.0000    0.9298    0.0000    0.0000    0.0010   171   172   173     1
   173   21.3846    0.0000    6.0000    0.9298    0.0000    0.0000    0.0010   172   173   174     1
   174   22.3144    0.0000    6.0000    0.9298    0.0000    0.0000    0.0010   173   174   175     1
   175   23.2441    0.0000    6.0000    0.9298    0.0000    0.0000    0.0010   174   175   176     1
   176   24.1739    0.0000    6.0000    0.9298    0.0000    0.0000    0.0010   175   176   177     1
   177   25.1037    0.0000    6.0000    0.9298    0.0000    0.0000    0.0010   176   177   178     1
   178   26.0334    0.0000    6.0000    0.9298    0.0000    0.0000    0.0010   177   178   179     1
   179   26.9632    0.0000    6.0000    0.9298    0.0000    0.0000    0.0010   178   179   180     1
   180   27.8930    0.0000    6.0000    0.9298    0.0000    0.0000    0.0010   179   180   181     1
   181   28.8227    0.0000    6.0000    0.9298    0.0000    0.0000    0.0010   180   181   182     1
   182   29.7525    0.0000    6.0000    0.9298    0.0000    0.0000    0.0010   181   182   183     1
   183   30.6823    0.0000    6.0000    0.9298    0.0000    0.0000    0.0010   182   183   184     1
   184   31.6120    0.0000    6.0000    0.9298    0.0000    0.0000    0.0010   183   184   185     1
   185   32.5418    0.0000    6.0000    0.9298    0.0000    0.0000    0.0010   184   185   186     1
   186   33.4716    0.0000    6.0000    0.9298    0.0000    0.0000    0.0010   185   186   187     1
   187   34.4013    0.0000    6.0000    0.9298    0.0000    0.0000    0.0010   186   187   188     1
   188   35.3311    0.0000    6.0000    0.9298    0.0000    0.0000    0.0010   187   188   189     1
   189   36.2609    0.0000    6.0000    0.9298    0.0000    0.0000    0.0010   188   189   190     1
   190   37.1906    0.0000    6.0000    0.9298    0.0000    0.0000    0.0010   189   190   191     1
   191   38.1204    0.0000    6.0000    0.9298    0.0000    0.0000    0.0010   190   191   192     1
   192   39.0502    0.0000    6.0000    0.9298    0.0000    0.0000    0.0010   191   192   193     1
   193   39.9799    0.0000    6.0000    0.9298    0.0000    0.0000    0.0010   192   193   194     1
   194   40.9097    0.0000    6.0000    0.9298    0.0000    0.0000    0.0010   193   194   195     1
   195   41.8395    0.0000    6.0000    0.9298    0.0000    0.0000    0.0010   194   195   196     1
   196   42.7692    0.0000    6.0000    0.9298    0.0000    0.0000    0.0010   195   196   197     1
   197   43.6990    0.0000    6.0000    0.9298    0.0000    0.0000    0.0010   196   197   198     1
   198   44.6288    0.0000    6.0000    0.9298    0.0000    0.0000    0.0010   197   198   199     1
   199   45.5585    0.0000    6.0000    0.9298    0.0000    0.0000    0.0010   198   199   200     1
   200   46.4883    0.0000    6.0000    0.9298    0.0000    0.0000    0.0010   199   200   201     1
   201   47.4181    0.0000    6.0000    0.9298    0.0000    0.0000    0.0010   200   201   202     1
   202   48.3478    0.0000    6.0000    0.9298    0.0000    0.0000    0.0010   201   202   203     1
   203   49.2776    0.0000    6.0000    0.9298    0.0000    0.0000    0.0010   202   203   204     1
   204   50.2074    0.0000    6.0000    0.9298    0.0000    0.0000    0.0010   203   204   205     1
   205   51.1371    0.0000    6.0000    0.9298    0.0000    0.0000    0.0010   204   205   206     1
   206   52.0669    0.0000    6.0000    0.9298    0.0000    0.0000    0.0010   205   206   207     1
   207   52.9967    0.0000    6.0000    0.9298    0.0000    0.0000    0.0010   206   207   208     1
   208   53.9264    0.0000    6.0000    0.9298    0.0000    0.0000    0.0010   207   208   209     1
   209   54.8562    0.0000    6.0000    0.9298    0.0000    0.0000    0.0010   208   209   210     1
   210   55.7860    0.0000    6.0000    0.9298    0.0000    0.0000    0.0010   209   210   211     1
   211   56.7157    0.0000    6.0000    0.9298    0.0000    0.0000    0.0010   210   211   212     1
   212   57.6455    0.0000    6.0000    0.9298    0.0000    0.0000    0.0010   211   212   213     1
   213   58.5753    0.0000    6.0000    0.9298    0.0000    0.0000    0.0010   212   213   214     1
   214   59.5050    0.0000    6.0000    0.9298    0.0000    0.0000    0.0010   213   214   215     1
   215   60.4348    0.0000    6.0000    0.9298    0.0000    0.0000    0.0010   214   215   216     1
   216   61.3645    0.0000    6.0000    0.9298    0.0000    0.0000    0.0010   215   216   217     1
   217   62.2943    0.0000    6.0000    0.9298    0.0000    0.0000    0.0010   216   217   218     1
   218   63.2241    0.0000    6.0000    0.9298    0.0000    0.0000    0.0010   217   218   219     1
   219   64.1538    0.0000    6.0000    0.9298    0.0000    0.0000    0.0010   218   219   220     1
   220   65.0836    0.0000    6.0000    0.9298    0.0000    0.0000    0.0010   219   220   221     1
   221   66.0134    0.0000    6.0000    0.9298    0.0000    0.0000    0.0010   220   221   222     1
   222   66.9431    0.0000    6.0000    0.9298    0.0000    0.0000    0.0010   221   222   223     1
   223   67.8729    0.0000    6.0000    0.9298    0.0000    0.0000    0.0010   222   223   224     1
   224   68.8027    0.0000    6.0000    0.9298    0.0000    0.0000    0.0010   223   224   225     1
   225   69.7324    0.0000    6.0000    0.9298    0.0000    0.0000    0.0010   224   225   226     1
   226   70.6622    0.0000    6.0000    0.9298    0.0000    0.0000    0.0010   225   226   227     1
   227   71.5920    0.0000    6.0000    0.9298    0.0000    0.0000    0.0010   226   227   228     1
   228   72.5217    0.0000    6.0000    0.9298    0.0000    0.0000    0.0010   227   228   229     1
   229   73.4515    0.0000    6.0000    0.9298    0.0000    0.0000    0.0010   228   229   230     1
   230   74.3813    0.0000    6.0000    0.9298    0.0000    0.0000    0.0010   229   230   231     1
   231   75.3110    0.0000    6.0000    0.9298    0.0000    0.0000    0.0010   230   231   232     1
   232   76.2408    0.0000    6.0000    0.9298    0.0000    0.0000    0.0010   231   232   233     1
   233   77.1706    0.0000    6.0000    0.9298    0.0000    0.0000    0.0010   232   233   234     1
   234   78.1003    0.0000    6.0000    0.9298    0.0000    0.0000    0.0010   233   234   235     1
   235   79.0301    0.0000    6.0000    0.9298    0.0000    0.0000    0.0010   234   235   236     1
   236   79.9599    0.0000    6.0000    0.9298    0.0000    0.0000    0.0010   235   236   237     1
   237   80.8896    0.0000    6.0000    0.9298    0.0000    0.0000    0.0010   236   237   238     1
   238   81.8194    0.0000    6.0000    0.9298    0.0000    0.0000    0.0010   237   238   239     1
   239   82.7492    0.0000    6.0000    0.9298    0.0000    0.0000    0.0010   238   239   240     1
   240   83.6789    0.0000    6.0000    0.9298    0.0000    0.0000    0.0010   239   240   241     1
   241   84.6087    0.0000    6.0000    0.9298    0.0000    0.0000    0.0010   240   241   242     1
   242   85.5385    0.0000    6.0000    0.9298    0.0000    0.0000    0.0010   241   242   243     1
   243   86.4682    0.0000    6.0000    0.9298    0.0000    0.0000    0.0010   242   243   244     1
   244   87.3980    0.0000    6.0000    0.9298    0.0000    0.0000    0.0010   243   244   245     1
   245   88.3278    0.0000    6.0000    0.9298    0.0000    0.0000    0.0010   244   245   246     1
   246   89.2575    0.0000    6.0000    0.9298    0.0000    0.0000    0.0010   245   246   247     1
   247   90.1873    0.0000    6.0000    0.9298    0.0000    0.0000    0.0010   246   247   248     1
   248   91.1171    0.0000    6.0000    0.9298    0.0000    0.0000    0.0010   247   248   249     1
   249   92.0468    0.0000    6.0000    0.9298    0.0000    0.0000    0.0010   248   249   250     1
   250   92.9766    0.0000    6.0000    0.9298    0.0000    0.0000    0.0010   249   250   251     1
   251   93.9064    0.0000    6.0000    0.9298    0.0000    0.0000    0.0010   250   251   252     1
   252   94.8361    0.0000    6.0000    0.9298    0.0000    0.0000    0.0010   251   252   253     1
   253   95.7659    0.0000    6.0000    0.9298    0.0000    0.0000    0.0010   252   253   254     1
   254   96.6957    0.0000    6.0000    0.9298    0.0000    0.0000    0.0010   253   254   255     1
   255   97.6254    0.0000    6.0000    0.9298    0.0000    0.0000    0.0010   254   255   256     1
   256   98.5552    0.0000    6.0000    0.9298    0.0000    0.0000    0.0010   255   256   257     1
   257   99.4849    0.0000    6.0000    0.9298    0.0000    0.0000    0.0010   256   257   258     1
   258  100.4147    0.0000    6.0000    0.9298    0.0000    0.0000    0.0010   257   258   259     1
   259  101.3445    0.0000    6.0000    0.9298    0.0000    0.0000    0.0010   258   259   260     1
   260  102.2742    0.0000    6.0000    0.9298    0.0000    0.0000    0.0010   259   260   261     1
   261  103.2040    0.0000    6.0000    0.9298    0.0000    0.0000    0.0010   260   261   262     1
   262  104.1338    0.0000    6.0000    0.9298    0.0000    0.0000    0.0010   261   262   263     1
   263  105.0635    0.0000    6.0000    0.9298    0.0000    0.0000    0.0010   262   263   264     1
   264  105.9933    0.0000    6.0000    0.9298    0.0000    0.0000    0.0010   263   264   265     1
   265  106.9231    0.0000    6.0000    0.9298    0.0000    0.0000    0.0010   264   265   266     1
   266  107.8528    0.0000    6.0000    0.9298    0.0000    0.0000    0.0010   265   266   267     1
   267  108.7826    0.0000    6.0000    0.9298    0.0000    0.0000    0.0010   266   267   268     1
   268  109.7124    0.0000    6.0000    0.9298    0.0000    0.0000    0.0010   267   268   269     1
   269  110.6421    0.0000    6.0000    0.9298    0.0000    0.0000    0.0010   268   269   270     1
   270  111.5719    0.0000    6.0000    0.9298    0.0000    0.0000    0.0010   269   270   271     1
   271  112.5017    0.0000    6.0000    0.9298    0.0000    0.0000    0.0010   270   271   272     1
   272  113.4314    0.0000    6.0000    0.9298    0.0000    0.0000    0.0010   271   272   273     1
   273  114.3612    0.0000    6.0000    0.9298    0.0000    0.0000    0.0010   272   273   274     1
   274  115.2910    0.0000    6.0000    0.9298    0.0000    0.0000    0.0010   273   274   275     1
   275  116.2207    0.0000    6.0000    0.9298    0.0000    0.0000    0.0010   274   275   276     1
   276  117.1505    0.0000    6.0000    0.9298    0.0000    0.0000    0.0010   275   276   277     1
   277  118.0803    0.0000    6.0000    0.9298    0.0000    0.0000    0.0010   276   277   278     1
   278  119.0100    0.0000    6.0000    0.9298    0.0000    0.0000    0.0010   277   278   279     1
   279  119.9398    0.0000    6.0000    0.9298    0.0000    0.0000    0.0010   278   279   280     1
   280  120.8696    0.0000    6.0000    0.9298    0.0000    0.0000    0.0010   279   280   281     1
   281  121.7993    0.0000    6.0000    0.9298    0.0000    0.0000    0.0010   280   281   282     1
   282  122.7291    0.0000    6.0000    0.9298    0.0000    0.0000    0.0010   281   282   283     1
   283  123.6589    0.0000    6.0000    0.9298    0.0000    0.0000    0.0010   282   283   284     1
   284  124.5886    0.0000    6.0000    0.9298    0.0000    0.0000    0.0010   283   284   285     1
   285  125.5184    0.0000    6.0000    0.9298    0.0000    0.0000    0.0010   284   285   286     1
   286  126.4482    0.0000    6.0000    0.9298    0.0000    0.0000    0.0010   285   286   287     1
   287  127.3779    0.0000    6.0000    0.9298    0.0000    0.0000    0.0010   286   287   288     1
   288  128.3077    0.0000    6.0000    0.9298    0.0000    0.0000    0.0010   287   288   289     1
   289  129.2375    0.0000    6.0000    0.9298    0.0000    0.0000    0.0010   288   289   290     1
   290  130.1672    0.0000    6.0000    0.9298    0.0000    0.0000    0.0010   289   290   291     1
   291  131.0970    0.0000    6.0000    0.9298    0.0000    0.0000    0.0010   290   291   292     1
   292  132.0268    0.0000    6.0000    0.9298    0.0000    0.0000    0.0010   291   292   293     1
   293  132.9565    0.0000    6.0000    0.9298    0.0000    0.0000    0.0010   292   293   294     1
   294  133.8863    0.0000    6.0000    0.9298    0.0000    0.0000    0.0010   293   294   295     1
   295  134.8161    0.0000    6.0000    0.9298    0.0000    0.0000    0.0010   294   295   296     1
   296  135.7458    0.0000    6.0000    0.9298    0.0000    0.0000    0.0010   295   296   297     1
   297  136.6756    0.0000    6.0000    0.9298    0.0000    0.0000    0.0010   296   297   298     1
   298  137.6054    0.0000    6.0000    0.9298    0.0000    0.0000    0.0010   297   298   299     1
   299  138.5351    0.0000    6.0000    0.9298    0.0000    0.0000    0.0010   298   299     0     1



*****  DATA CARD N0.   1 GN   1     0     0     0  0.00000E+00  0.00000E+00  0.00000E+00  0.00000E+00  0.00000E+00  0.00000E+00
*****  DATA CARD N0.   2 FR   0     0     0     0  5.40000E-01  0.00000E+00  0.00000E+00  0.00000E+00  0.00000E+00  0.00000E+00
*****  DATA CARD N0.   3 EX   0     1   150     0  1.00000E+00  0.00000E+00  0.00000E+00  0.00000E+00  0.00000E+00  0.00000E+00
*****  DATA CARD N0.   4 RP   1     1     1     0  1.50000E+00  0.00000E+00  0.00000E+00  0.00000E+00  1.00000E+03  0.00000E+00


                               --------- FREQUENCY --------
                               FREQUENCY=  5.4000E-01 MHZ
                               WAVELENGTH= 5.5519E+02 METERS


                        APPROXIMATE INTEGRATION EMPLOYED FOR SEGMENTS
                        THAT ARE MORE THAN 1.000 WAVELENGTHS APART



                          ------ STRUCTURE IMPEDANCE LOADING ------
                                 THIS STRUCTURE IS NOT LOADED



                            -------- ANTENNA ENVIRONMENT --------
                            PERFECT GROUND


                             ---------- MATRIX TIMING ----------
                               FILL= 1620 msec  FACTOR: 1260 msec


                        --------- ANTENNA INPUT PARAMETERS ---------
  TAG   SEG       VOLTAGE (VOLTS)         CURRENT (AMPS)         IMPEDANCE (OHMS)        ADMITTANCE (MHOS)     POWER
  NO.   NO.     REAL      IMAGINARY     REAL      IMAGINARY     REAL      IMAGINARY    REAL       IMAGINARY   (WATTS)
    1   150  1.0000E+00  0.0000E+00  2.2110E-03 -8.8647E-02  2.8118E-01  1.1274E+01  2.2110E-03 -8.8647E-02  1.1055E-03


                           -------- CURRENTS AND LOCATION --------
                                  DISTANCES IN WAVELENGTHS

   SEG  TAG    COORDINATES OF SEGM CENTER     SEGM    ------------- CURRENT (AMPS) -------------
   No:  No:       X         Y         Z      LENGTH     REAL      IMAGINARY    MAGN        PHASE

     1    1   -0.2495    0.0000    0.0108   0.00167  1.4416E-05 -5.8363E-04  5.8381E-04  -88.585
     2    1   -0.2479    0.0000    0.0108   0.00167  4.0526E-05 -1.6406E-03  1.6411E-03  -88.585
     3    1   -0.2462    0.0000    0.0108   0.00167  6.5361E-05 -2.6459E-03  2.6467E-03  -88.585
     4    1   -0.2445    0.0000    0.0108   0.00167  8.9681E-05 -3.6302E-03  3.6313E-03  -88.585
     5    1   -0.2428    0.0000    0.0108   0.00167  1.1369E-04 -4.6017E-03  4.6031E-03  -88.585
     6    1   -0.2412    0.0000    0.0108   0.00167  1.3748E-04 -5.5645E-03  5.5662E-03  -88.585
     7    1   -0.2395    0.0000    0.0108   0.00167  1.6111E-04 -6.5206E-03  6.5226E-03  -88.585
     8    1   -0.2378    0.0000    0.0108   0.00167  1.8462E-04 -7.4716E-03  7.4739E-03  -88.585
     9    1   -0.2361    0.0000    0.0108   0.00167  2.0802E-04 -8.4184E-03  8.4210E-03  -88.585
    10    1   -0.2345    0.0000    0.0108   0.00167  2.3134E-04 -9.3615E-03  9.3644E-03  -88.584
    11    1   -0.2328    0.0000    0.0108   0.00167  2.5458E-04 -1.0302E-02  1.0305E-02  -88.584
    12    1   -0.2311    0.0000    0.0108   0.00167  2.7775E-04 -1.1239E-02  1.1242E-02  -88.584
    13    1   -0.2294    0.0000    0.0108   0.00167  3.0086E-04 -1.2173E-02  1.2177E-02  -88.584
    14    1   -0.2278    0.0000    0.0108   0.00167  3.2390E-04 -1.3105E-02  1.3109E-02  -88.584
    15    1   -0.2261    0.0000    0.0108   0.00167  3.4689E-04 -1.4035E-02  1.4039E-02  -88.584
    16    1   -0.2244    0.0000    0.0108   0.00167  3.6983E-04 -1.4962E-02  1.4966E-02  -88.584
    17    1   -0.2227    0.0000    0.0108   0.00167  3.9271E-04 -1.5886E-02  1.5891E-02  -88.584
    18    1   -0.2211    0.0000    0.0108   0.00167  4.1553E-04 -1.6809E-02  1.6814E-02  -88.584
    19    1   -0.2194    0.0000    0.0108   0.00167  4.3829E-04 -1.7729E-02  1.7734E-02  -88.584
    20    1   -0.2177    0.0000    0.0108   0.00167  4.6100E-04 -1.8646E-02  1.8652E-02  -88.584
    21    1   -0.2160    0.0000    0.0108   0.00167  4.8365E-04 -1.9562E-02  1.9568E-02  -88.584
    22    1   -0.2144    0.0000    0.0108   0.00167  5.0623E-04 -2.0474E-02  2.0480E-02  -88.584
    23    1   -0.2127    0.0000    0.0108   0.00167  5.2876E-04 -2.1384E-02  2.1391E-02  -88.584
    24    1   -0.2110    0.0000    0.0108   0.00167  5.5122E-04 -2.2292E-02  2.2298E-02  -88.583
    25    1   -0.2093    0.0000    0.0108   0.00167  5.7362E-04 -2.3196E-02  2.3203E-02  -88.583
    26    1   -0.2077    0.0000    0.0108   0.00167  5.9595E-04 -2.4098E-02  2.4106E-02  -88.583
    27    1   -0.2060    0.0000    0.0108   0.00167  6.1822E-04 -2.4997E-02  2.5005E-02  -88.583
    28    1   -0.2043    0.0000    0.0108   0.00167  6.4041E-04 -2.5893E-02  2.5901E-02  -88.583
    29    1   -0.2026    0.0000    0.0108   0.00167  6.6253E-04 -2.6786E-02  2.6794E-02  -88.583
    30    1   -0.2010    0.0000    0.0108   0.00167  6.8457E-04 -2.7676E-02  2.7685E-02  -88.583
    31    1   -0.1993    0.0000    0.0108   0.00167  7.0654E-04 -2.8563E-02  2.8572E-02  -88.583
    32    1   -0.1976    0.0000    0.0108   0.00167  7.2843E-04 -2.9446E-02  2.9455E-02  -88.583
    33    1   -0.1959    0.0000    0.0108   0.00167  7.5023E-04 -3.0326E-02  3.0336E-02  -88.583
    34    1   -0.1943    0.0000    0.0108   0.00167  7.7196E-04 -3.1203E-02  3.1212E-02  -88.583
    35    1   -0.1926    0.0000    0.0108   0.00167  7.9360E-04 -3.2076E-02  3.2086E-02  -88.583
    36    1   -0.1909    0.0000    0.0108   0.00167  8.1515E-04 -3.2945E-02  3.2955E-02  -88.583
    37    1   -0.1892    0.0000    0.0108   0.00167  8.3661E-04 -3.3811E-02  3.3821E-02  -88.583
    38    1   -0.1876    0.0000    0.0108   0.00167  8.5798E-04 -3.4673E-02  3.4683E-02  -88.583
    39    1   -0.1859    0.0000    0.0108   0.00167  8.7925E-04 -3.5531E-02  3.5542E-02  -88.582
    40    1   -0.1842    0.0000    0.0108   0.00167  9.0043E-04 -3.6385E-02  3.6396E-02  -88.582
    41    1   -0.1825    0.0000    0.0108   0.00167  9.2150E-04 -3.7235E-02  3.7246E-02  -88.582
    42    1   -0.1809    0.0000    0.0108   0.00167  9.4248E-04 -3.8080E-02  3.8092E-02  -88.582
    43    1   -0.1792    0.0000    0.0108   0.00167  9.6335E-04 -3.8922E-02  3.8933E-02  -88.582
    44    1   -0.1775    0.0000    0.0108   0.00167  9.8412E-04 -3.9759E-02  3.9771E-02  -88.582
    45    1   -0.1758    0.0000    0.0108   0.00167  1.0048E-03 -4.0591E-02  4.0604E-02  -88.582
    46    1   -0.1742    0.0000    0.0108   0.00167  1.0253E-03 -4.1419E-02  4.1432E-02  -88.582
    47    1   -0.1725    0.0000    0.0108   0.00167  1.0458E-03 -4.2243E-02  4.2256E-02  -88.582
    48    1   -0.1708    0.0000    0.0108   0.00167  1.0661E-03 -4.3061E-02  4.3074E-02  -88.582
    49    1   -0.1691    0.0000    0.0108   0.00167  1.0863E-03 -4.3875E-02  4.3889E-02  -88.582
    50    1   -0.1675    0.0000    0.0108   0.00167  1.1064E-03 -4.4684E-02  4.4698E-02  -88.582
    51    1   -0.1658    0.0000    0.0108   0.00167  1.1264E-03 -4.5488E-02  4.5502E-02  -88.582
    52    1   -0.1641    0.0000    0.0108   0.00167  1.1462E-03 -4.6287E-02  4.6301E-02  -88.581
    53    1   -0.1624    0.0000    0.0108   0.00167  1.1659E-03 -4.7081E-02  4.7095E-02  -88.581
    54    1   -0.1608    0.0000    0.0108   0.00167  1.1855E-03 -4.7869E-02  4.7884E-02  -88.581
    55    1   -0.1591    0.0000    0.0108   0.00167  1.2050E-03 -4.8653E-02  4.8667E-02  -88.581
    56    1   -0.1574    0.0000    0.0108   0.00167  1.2243E-03 -4.9430E-02  4.9445E-02  -88.581
    57    1   -0.1557    0.0000    0.0108   0.00167  1.2435E-03 -5.0203E-02  5.0218E-02  -88.581
    58    1   -0.1541    0.0000    0.0108   0.00167  1.2625E-03 -5.0969E-02  5.0985E-02  -88.581
    59    1   -0.1524    0.0000    0.0108   0.00167  1.2815E-03 -5.1730E-02  5.1746E-02  -88.581
    60    1   -0.1507    0.0000    0.0108   0.00167  1.3002E-03 -5.2486E-02  5.2502E-02  -88.581
    61    1   -0.1490    0.0000    0.0108   0.00167  1.3189E-03 -5.3235E-02  5.3251E-02  -88.581
    62    1   -0.1474    0.0000    0.0108   0.00167  1.3374E-03 -5.3979E-02  5.3995E-02  -88.581
    63    1   -0.1457    0.0000    0.0108   0.00167  1.3557E-03 -5.4716E-02  5.4733E-02  -88.581
    64    1   -0.1440    0.0000    0.0108   0.00167  1.3739E-03 -5.5448E-02  5.5465E-02  -88.581
    65    1   -0.1423    0.0000    0.0108   0.00167  1.3920E-03 -5.6173E-02  5.6190E-02  -88.580
    66    1   -0.1407    0.0000    0.0108   0.00167  1.4099E-03 -5.6892E-02  5.6909E-02  -88.580
    67    1   -0.1390    0.0000    0.0108   0.00167  1.4276E-03 -5.7605E-02  5.7622E-02  -88.580
    68    1   -0.1373    0.0000    0.0108   0.00167  1.4452E-03 -5.8311E-02  5.8329E-02  -88.580
    69    1   -0.1357    0.0000    0.0108   0.00167  1.4626E-03 -5.9011E-02  5.9029E-02  -88.580
    70    1   -0.1340    0.0000    0.0108   0.00167  1.4799E-03 -5.9704E-02  5.9723E-02  -88.580
    71    1   -0.1323    0.0000    0.0108   0.00167  1.4970E-03 -6.0391E-02  6.0410E-02  -88.580
    72    1   -0.1306    0.0000    0.0108   0.00167  1.5140E-03 -6.1071E-02  6.1090E-02  -88.580
    73    1   -0.1290    0.0000    0.0108   0.00167  1.5307E-03 -6.1744E-02  6.1763E-02  -88.580
    74    1   -0.1273    0.0000    0.0108   0.00167  1.5474E-03 -6.2411E-02  6.2430E-02  -88.580
    75    1   -0.1256    0.0000    0.0108   0.00167  1.5638E-03 -6.3070E-02  6.3090E-02  -88.580
    76    1   -0.1239    0.0000    0.0108   0.00167  1.5801E-03 -6.3723E-02  6.3742E-02  -88.580
    77    1   -0.1223    0.0000    0.0108   0.00167  1.5962E-03 -6.4368E-02  6.4388E-02  -88.580
    78    1   -0.1206    0.0000    0.0108   0.00167  1.6121E-03 -6.5006E-02  6.5026E-02  -88.579
    79    1   -0.1189    0.0000    0.0108   0.00167  1.6278E-03 -6.5637E-02  6.5658E-02  -88.579
    80    1   -0.1172    0.0000    0.0108   0.00167  1.6434E-03 -6.6261E-02  6.6281E-02  -88.579
    81    1   -0.1156    0.0000    0.0108   0.00167  1.6588E-03 -6.6878E-02  6.6898E-02  -88.579
    82    1   -0.1139    0.0000    0.0108   0.00167  1.6740E-03 -6.7487E-02  6.7507E-02  -88.579
    83    1   -0.1122    0.0000    0.0108   0.00167  1.6890E-03 -6.8088E-02  6.8109E-02  -88.579
    84    1   -0.1105    0.0000    0.0108   0.00167  1.7039E-03 -6.8682E-02  6.8703E-02  -88.579
    85    1   -0.1089    0.0000    0.0108   0.00167  1.7185E-03 -6.9268E-02  6.9290E-02  -88.579
    86    1   -0.1072    0.0000    0.0108   0.00167  1.7330E-03 -6.9847E-02  6.9869E-02  -88.579
    87    1   -0.1055    0.0000    0.0108   0.00167  1.7473E-03 -7.0418E-02  7.0440E-02  -88.579
    88    1   -0.1038    0.0000    0.0108   0.00167  1.7613E-03 -7.0981E-02  7.1003E-02  -88.579
    89    1   -0.1022    0.0000    0.0108   0.00167  1.7752E-03 -7.1536E-02  7.1558E-02  -88.578
    90    1   -0.1005    0.0000    0.0108   0.00167  1.7889E-03 -7.2084E-02  7.2106E-02  -88.578
    91    1   -0.0988    0.0000    0.0108   0.00167  1.8024E-03 -7.2623E-02  7.2646E-02  -88.578
    92    1   -0.0971    0.0000    0.0108   0.00167  1.8157E-03 -7.3154E-02  7.3177E-02  -88.578
    93    1   -0.0955    0.0000    0.0108   0.00167  1.8288E-03 -7.3678E-02  7.3700E-02  -88.578
    94    1   -0.0938    0.0000    0.0108   0.00167  1.8417E-03 -7.4193E-02  7.4216E-02  -88.578
    95    1   -0.0921    0.0000    0.0108   0.00167  1.8545E-03 -7.4699E-02  7.4723E-02  -88.578
    96    1   -0.0904    0.0000    0.0108   0.00167  1.8670E-03 -7.5198E-02  7.5221E-02  -88.578
    97    1   -0.0888    0.0000    0.0108   0.00167  1.8792E-03 -7.5688E-02  7.5712E-02  -88.578
    98    1   -0.0871    0.0000    0.0108   0.00167  1.8913E-03 -7.6170E-02  7.6193E-02  -88.578
    99    1   -0.0854    0.0000    0.0108   0.00167  1.9032E-03 -7.6643E-02  7.6667E-02  -88.578
   100    1   -0.0837    0.0000    0.0108   0.00167  1.9149E-03 -7.7108E-02  7.7132E-02  -88.577
   101    1   -0.0821    0.0000    0.0108   0.00167  1.9264E-03 -7.7565E-02  7.7589E-02  -88.577
   102    1   -0.0804    0.0000    0.0108   0.00167  1.9376E-03 -7.8012E-02  7.8036E-02  -88.577
   103    1   -0.0787    0.0000    0.0108   0.00167  1.9487E-03 -7.8451E-02  7.8476E-02  -88.577
   104    1   -0.0770    0.0000    0.0108   0.00167  1.9595E-03 -7.8882E-02  7.8906E-02  -88.577
   105    1   -0.0754    0.0000    0.0108   0.00167  1.9701E-03 -7.9303E-02  7.9328E-02  -88.577
   106    1   -0.0737    0.0000    0.0108   0.00167  1.9805E-03 -7.9716E-02  7.9741E-02  -88.577
   107    1   -0.0720    0.0000    0.0108   0.00167  1.9907E-03 -8.0120E-02  8.0145E-02  -88.577
   108    1   -0.0703    0.0000    0.0108   0.00167  2.0006E-03 -8.0516E-02  8.0540E-02  -88.577
   109    1   -0.0687    0.0000    0.0108   0.00167  2.0104E-03 -8.0902E-02  8.0927E-02  -88.577
   110    1   -0.0670    0.0000    0.0108   0.00167  2.0199E-03 -8.1279E-02  8.1304E-02  -88.576
   111    1   -0.0653    0.0000    0.0108   0.00167  2.0292E-03 -8.1647E-02  8.1673E-02  -88.576
   112    1   -0.0636    0.0000    0.0108   0.00167  2.0383E-03 -8.2007E-02  8.2032E-02  -88.576
   113    1   -0.0620    0.0000    0.0108   0.00167  2.0471E-03 -8.2357E-02  8.2382E-02  -88.576
   114    1   -0.0603    0.0000    0.0108   0.00167  2.0558E-03 -8.2698E-02  8.2723E-02  -88.576
   115    1   -0.0586    0.0000    0.0108   0.00167  2.0642E-03 -8.3030E-02  8.3055E-02  -88.576
   116    1   -0.0569    0.0000    0.0108   0.00167  2.0724E-03 -8.3352E-02  8.3378E-02  -88.576
   117    1   -0.0553    0.0000    0.0108   0.00167  2.0803E-03 -8.3666E-02  8.3691E-02  -88.576
   118    1   -0.0536    0.0000    0.0108   0.00167  2.0880E-03 -8.3970E-02  8.3996E-02  -88.576
   119    1   -0.0519    0.0000    0.0108   0.00167  2.0955E-03 -8.4265E-02  8.4291E-02  -88.575
   120    1   -0.0502    0.0000    0.0108   0.00167  2.1028E-03 -8.4550E-02  8.4576E-02  -88.575
   121    1   -0.0486    0.0000    0.0108   0.00167  2.1098E-03 -8.4826E-02  8.4852E-02  -88.575
   122    1   -0.0469    0.0000    0.0108   0.00167  2.1166E-03 -8.5093E-02  8.5119E-02  -88.575
   123    1   -0.0452    0.0000    0.0108   0.00167  2.1232E-03 -8.5350E-02  8.5377E-02  -88.575
   124    1   -0.0435    0.0000    0.0108   0.00167  2.1296E-03 -8.5598E-02  8.5625E-02  -88.575
   125    1   -0.0419    0.0000    0.0108   0.00167  2.1357E-03 -8.5836E-02  8.5863E-02  -88.575
   126    1   -0.0402    0.0000    0.0108   0.00167  2.1415E-03 -8.6065E-02  8.6092E-02  -88.575
   127    1   -0.0385    0.0000    0.0108   0.00167  2.1472E-03 -8.6285E-02  8.6311E-02  -88.574
   128    1   -0.0368    0.0000    0.0108   0.00167  2.1526E-03 -8.6494E-02  8.6521E-02  -88.574
   129    1   -0.0352    0.0000    0.0108   0.00167  2.1578E-03 -8.6694E-02  8.6721E-02  -88.574
   130    1   -0.0335    0.0000    0.0108   0.00167  2.1627E-03 -8.6885E-02  8.6912E-02  -88.574
   131    1   -0.0318    0.0000    0.0108   0.00167  2.1674E-03 -8.7066E-02  8.7093E-02  -88.574
   132    1   -0.0301    0.0000    0.0108   0.00167  2.1718E-03 -8.7237E-02  8.7264E-02  -88.574
   133    1   -0.0285    0.0000    0.0108   0.00167  2.1761E-03 -8.7399E-02  8.7426E-02  -88.574
   134    1   -0.0268    0.0000    0.0108   0.00167  2.1800E-03 -8.7551E-02  8.7578E-02  -88.574
   135    1   -0.0251    0.0000    0.0108   0.00167  2.1838E-03 -8.7693E-02  8.7720E-02  -88.573
   136    1   -0.0234    0.0000    0.0108   0.00167  2.1873E-03 -8.7825E-02  8.7853E-02  -88.573
   137    1   -0.0218    0.0000    0.0108   0.00167  2.1905E-03 -8.7948E-02  8.7975E-02  -88.573
   138    1   -0.0201    0.0000    0.0108   0.00167  2.1936E-03 -8.8061E-02  8.8088E-02  -88.573
   139    1   -0.0184    0.0000    0.0108   0.00167  2.1963E-03 -8.8164E-02  8.8191E-02  -88.573
   140    1   -0.0167    0.0000    0.0108   0.00167  2.1989E-03 -8.8258E-02  8.8285E-02  -88.573
   141    1   -0.0151    0.0000    0.0108   0.00167  2.2012E-03 -8.8341E-02  8.8368E-02  -88.573
   142    1   -0.0134    0.0000    0.0108   0.00167  2.2032E-03 -8.8415E-02  8.8442E-02  -88.573
   143    1   -0.0117    0.0000    0.0108   0.00167  2.2050E-03 -8.8479E-02  8.8506E-02  -88.572
   144    1   -0.0100    0.0000    0.0108   0.00167  2.2066E-03 -8.8533E-02  8.8560E-02  -88.572
   145    1   -0.0084    0.0000    0.0108   0.00167  2.2080E-03 -8.8577E-02  8.8604E-02  -88.572
   146    1   -0.0067    0.0000    0.0108   0.00167  2.2090E-03 -8.8611E-02  8.8638E-02  -88.572
   147    1   -0.0050    0.0000    0.0108   0.00167  2.2099E-03 -8.8635E-02  8.8662E-02  -88.572
   148    1   -0.0033    0.0000    0.0108   0.00167  2.2105E-03 -8.8649E-02  8.8676E-02  -88.572
   149    1   -0.0017    0.0000    0.0108   0.00167  2.2109E-03 -8.8652E-02  8.8679E-02  -88.571
   150    1   -0.0000    0.0000    0.0108   0.00167  2.2110E-03 -8.8647E-02  8.8675E-02  -88.571
   151    1    0.0017    0.0000    0.0108   0.00167  2.2109E-03 -8.8652E-02  8.8679E-02  -88.571
   152    1    0.0033    0.0000    0.0108   0.00167  2.2105E-03 -8.8649E-02  8.8676E-02  -88.572
   153    1    0.0050    0.0000    0.0108   0.00167  2.2099E-03 -8.8635E-02  8.8662E-02  -88.572
   154    1    0.0067    0.0000    0.0108   0.00167  2.2090E-03 -8.8611E-02  8.8638E-02  -88.572
   155    1    0.0084    0.0000    0.0108   0.00167  2.2080E-03 -8.8577E-02  8.8604E-02  -88.572
   156    1    0.0100    0.0000    0.0108   0.00167  2.2066E-03 -8.8533E-02  8.8560E-02  -88.572
   157    1    0.0117    0.0000    0.0108   0.00167  2.2050E-03 -8.8479E-02  8.8506E-02  -88.572
   158    1    0.0134    0.0000    0.0108   0.00167  2.2032E-03 -8.8415E-02  8.8442E-02  -88.573
   159    1    0.0151    0.0000    0.0108   0.00167  2.2012E-03 -8.8341E-02  8.8368E-02  -88.573
   160    1    0.0167    0.0000    0.0108   0.00167  2.1989E-03 -8.8258E-02  8.8285E-02  -88.573
   161    1    0.0184    0.0000    0.0108   0.00167  2.1963E-03 -8.8164E-02  8.8191E-02  -88.573
   162    1    0.0201    0.0000    0.0108   0.00167  2.1936E-03 -8.8061E-02  8.8088E-02  -88.573
   163    1    0.0218    0.0000    0.0108   0.00167  2.1905E-03 -8.7948E-02  8.7975E-02  -88.573
   164    1    0.0234    0.0000    0.0108   0.00167  2.1873E-03 -8.7825E-02  8.7853E-02  -88.573
   165    1    0.0251    0.0000    0.0108   0.00167  2.1838E-03 -8.7693E-02  8.7720E-02  -88.573
   166    1    0.0268    0.0000    0.0108   0.00167  2.1800E-03 -8.7551E-02  8.7578E-02  -88.574
   167    1    0.0285    0.0000    0.0108   0.00167  2.1761E-03 -8.7399E-02  8.7426E-02  -88.574
   168    1    0.0301    0.0000    0.0108   0.00167  2.1718E-03 -8.7237E-02  8.7264E-02  -88.574
   169    1    0.0318    0.0000    0.0108   0.00167  2.1674E-03 -8.7066E-02  8.7093E-02  -88.574
   170    1    0.0335    0.0000    0.0108   0.00167  2.1627E-03 -8.6885E-02  8.6912E-02  -88.574
   171    1    0.0352    0.0000    0.0108   0.00167  2.1578E-03 -8.6694E-02  8.6721E-02  -88.574
   172    1    0.0368    0.0000    0.0108   0.00167  2.1526E-03 -8.6494E-02  8.6521E-02  -88.574
   173    1    0.0385    0.0000    0.0108   0.00167  2.1472E-03 -8.6285E-02  8.6311E-02  -88.574
   174    1    0.0402    0.0000    0.0108   0.00167  2.1415E-03 -8.6065E-02  8.6092E-02  -88.575
   175    1    0.0419    0.0000    0.0108   0.00167  2.1357E-03 -8.5836E-02  8.5863E-02  -88.575
   176    1    0.0435    0.0000    0.0108   0.00167  2.1296E-03 -8.5598E-02  8.5625E-02  -88.575
   177    1    0.0452    0.0000    0.0108   0.00167  2.1232E-03 -8.5350E-02  8.5377E-02  -88.575
   178    1    0.0469    0.0000    0.0108   0.00167  2.1166E-03 -8.5093E-02  8.5119E-02  -88.575
   179    1    0.0486    0.0000    0.0108   0.00167  2.1098E-03 -8.4826E-02  8.4852E-02  -88.575
   180    1    0.0502    0.0000    0.0108   0.00167  2.1028E-03 -8.4550E-02  8.4576E-02  -88.575
   181    1    0.0519    0.0000    0.0108   0.00167  2.0955E-03 -8.4265E-02  8.4291E-02  -88.575
   182    1    0.0536    0.0000    0.0108   0.00167  2.0880E-03 -8.3970E-02  8.3996E-02  -88.576
   183    1    0.0553    0.0000    0.0108   0.00167  2.0803E-03 -8.3666E-02  8.3691E-02  -88.576
   184    1    0.0569    0.0000    0.0108   0.00167  2.0724E-03 -8.3352E-02  8.3378E-02  -88.576
   185    1    0.0586    0.0000    0.0108   0.00167  2.0642E-03 -8.3030E-02  8.3055E-02  -88.576
   186    1    0.0603    0.0000    0.0108   0.00167  2.0558E-03 -8.2698E-02  8.2723E-02  -88.576
   187    1    0.0620    0.0000    0.0108   0.00167  2.0471E-03 -8.2357E-02  8.2382E-02  -88.576
   188    1    0.0636    0.0000    0.0108   0.00167  2.0383E-03 -8.2007E-02  8.2032E-02  -88.576
   189    1    0.0653    0.0000    0.0108   0.00167  2.0292E-03 -8.1647E-02  8.1673E-02  -88.576
   190    1    0.0670    0.0000    0.0108   0.00167  2.0199E-03 -8.1279E-02  8.1304E-02  -88.576
   191    1    0.0687    0.0000    0.0108   0.00167  2.0104E-03 -8.0902E-02  8.0927E-02  -88.577
   192    1    0.0703    0.0000    0.0108   0.00167  2.0006E-03 -8.0516E-02  8.0540E-02  -88.577
   193    1    0.0720    0.0000    0.0108   0.00167  1.9907E-03 -8.0120E-02  8.0145E-02  -88.577
   194    1    0.0737    0.0000    0.0108   0.00167  1.9805E-03 -7.9716E-02  7.9741E-02  -88.577
   195    1    0.0754    0.0000    0.0108   0.00167  1.9701E-03 -7.9303E-02  7.9328E-02  -88.577
   196    1    0.0770    0.0000    0.0108   0.00167  1.9595E-03 -7.8882E-02  7.8906E-02  -88.577
   197    1    0.0787    0.0000    0.0108   0.00167  1.9487E-03 -7.8451E-02  7.8476E-02  -88.577
   198    1    0.0804    0.0000    0.0108   0.00167  1.9376E-03 -7.8012E-02  7.8036E-02  -88.577
   199    1    0.0821    0.0000    0.0108   0.00167  1.9264E-03 -7.7565E-02  7.7589E-02  -88.577
   200    1    0.0837    0.0000    0.0108   0.00167  1.9149E-03 -7.7108E-02  7.7132E-02  -88.577
   201    1    0.0854    0.0000    0.0108   0.00167  1.9032E-03 -7.6643E-02  7.6667E-02  -88.578
   202    1    0.0871    0.0000    0.0108   0.00167  1.8913E-03 -7.6170E-02  7.6193E-02  -88.578
   203    1    0.0888    0.0000    0.0108   0.00167  1.8792E-03 -7.5688E-02  7.5712E-02  -88.578
   204    1    0.0904    0.0000    0.0108   0.00167  1.8670E-03 -7.5198E-02  7.5221E-02  -88.578
   205    1    0.0921    0.0000    0.0108   0.00167  1.8545E-03 -7.4699E-02  7.4723E-02  -88.578
   206    1    0.0938    0.0000    0.0108   0.00167  1.8417E-03 -7.4193E-02  7.4216E-02  -88.578
   207    1    0.0955    0.0000    0.0108   0.00167  1.8288E-03 -7.3678E-02  7.3700E-02  -88.578
   208    1    0.0971    0.0000    0.0108   0.00167  1.8157E-03 -7.3154E-02  7.3177E-02  -88.578
   209    1    0.0988    0.0000    0.0108   0.00167  1.8024E-03 -7.2623E-02  7.2646E-02  -88.578
   210    1    0.1005    0.0000    0.0108   0.00167  1.7889E-03 -7.2084E-02  7.2106E-02  -88.578
   211    1    0.1022    0.0000    0.0108   0.00167  1.7752E-03 -7.1536E-02  7.1558E-02  -88.578
   212    1    0.1038    0.0000    0.0108   0.00167  1.7613E-03 -7.0981E-02  7.1003E-02  -88.579
   213    1    0.1055    0.0000    0.0108   0.00167  1.7473E-03 -7.0418E-02  7.0440E-02  -88.579
   214    1    0.1072    0.0000    0.0108   0.00167  1.7330E-03 -6.9847E-02  6.9869E-02  -88.579
   215    1    0.1089    0.0000    0.0108   0.00167  1.7185E-03 -6.9268E-02  6.9290E-02  -88.579
   216    1    0.1105    0.0000    0.0108   0.00167  1.7039E-03 -6.8682E-02  6.8703E-02  -88.579
   217    1    0.1122    0.0000    0.0108   0.00167  1.6890E-03 -6.8088E-02  6.8109E-02  -88.579
   218    1    0.1139    0.0000    0.0108   0.00167  1.6740E-03 -6.7487E-02  6.7507E-02  -88.579
   219    1    0.1156    0.0000    0.0108   0.00167  1.6588E-03 -6.6878E-02  6.6898E-02  -88.579
   220    1    0.1172    0.0000    0.0108   0.00167  1.6434E-03 -6.6261E-02  6.6281E-02  -88.579
   221    1    0.1189    0.0000    0.0108   0.00167  1.6278E-03 -6.5637E-02  6.5658E-02  -88.579
   222    1    0.1206    0.0000    0.0108   0.00167  1.6121E-03 -6.5006E-02  6.5026E-02  -88.579
   223    1    0.1223    0.0000    0.0108   0.00167  1.5962E-03 -6.4368E-02  6.4388E-02  -88.580
   224    1    0.1239    0.0000    0.0108   0.00167  1.5801E-03 -6.3723E-02  6.3742E-02  -88.580
   225    1    0.1256    0.0000    0.0108   0.00167  1.5638E-03 -6.3070E-02  6.3090E-02  -88.580
   226    1    0.1273    0.0000    0.0108   0.00167  1.5474E-03 -6.2411E-02  6.2430E-02  -88.580
   227    1    0.1290    0.0000    0.0108   0.00167  1.5307E-03 -6.1744E-02  6.1763E-02  -88.580
   228    1    0.1306    0.0000    0.0108   0.00167  1.5140E-03 -6.1071E-02  6.1090E-02  -88.580
   229    1    0.1323    0.0000    0.0108   0.00167  1.4970E-03 -6.0391E-02  6.0410E-02  -88.580
   230    1    0.1340    0.0000    0.0108   0.00167  1.4799E-03 -5.9704E-02  5.9723E-02  -88.580
   231    1    0.1357    0.0000    0.0108   0.00167  1.4626E-03 -5.9011E-02  5.9029E-02  -88.580
   232    1    0.1373    0.0000    0.0108   0.00167  1.4452E-03 -5.8311E-02  5.8329E-02  -88.580
   233    1    0.1390    0.0000    0.0108   0.00167  1.4276E-03 -5.7605E-02  5.7622E-02  -88.580
   234    1    0.1407    0.0000    0.0108   0.00167  1.4099E-03 -5.6892E-02  5.6909E-02  -88.580
   235    1    0.1423    0.0000    0.0108   0.00167  1.3920E-03 -5.6173E-02  5.6190E-02  -88.580
   236    1    0.1440    0.0000    0.0108   0.00167  1.3739E-03 -5.5448E-02  5.5465E-02  -88.581
   237    1    0.1457    0.0000    0.0108   0.00167  1.3557E-03 -5.4716E-02  5.4733E-02  -88.581
   238    1    0.1474    0.0000    0.0108   0.00167  1.3374E-03 -5.3979E-02  5.3995E-02  -88.581
   239    1    0.1490    0.0000    0.0108   0.00167  1.3189E-03 -5.3235E-02  5.3251E-02  -88.581
   240    1    0.1507    0.0000    0.0108   0.00167  1.3002E-03 -5.2486E-02  5.2502E-02  -88.581
   241    1    0.1524    0.0000    0.0108   0.00167  1.2815E-03 -5.1730E-02  5.1746E-02  -88.581
   242    1    0.1541    0.0000    0.0108   0.00167  1.2625E-03 -5.0969E-02  5.0985E-02  -88.581
   243    1    0.1557    0.0000    0.0108   0.00167  1.2435E-03 -5.0203E-02  5.0218E-02  -88.581
   244    1    0.1574    0.0000    0.0108   0.00167  1.2243E-03 -4.9430E-02  4.9445E-02  -88.581
   245    1    0.1591    0.0000    0.0108   0.00167  1.2050E-03 -4.8653E-02  4.8667E-02  -88.581
   246    1    0.1608    0.0000    0.0108   0.00167  1.1855E-03 -4.7869E-02  4.7884E-02  -88.581
   247    1    0.1624    0.0000    0.0108   0.00167  1.1659E-03 -4.7081E-02  4.7095E-02  -88.581
   248    1    0.1641    0.0000    0.0108   0.00167  1.1462E-03 -4.6287E-02  4.6301E-02  -88.581
   249    1    0.1658    0.0000    0.0108   0.00167  1.1264E-03 -4.5488E-02  4.5502E-02  -88.582
   250    1    0.1675    0.0000    0.0108   0.00167  1.1064E-03 -4.4684E-02  4.4698E-02  -88.582
   251    1    0.1691    0.0000    0.0108   0.00167  1.0863E-03 -4.3875E-02  4.3889E-02  -88.582
   252    1    0.1708    0.0000    0.0108   0.00167  1.0661E-03 -4.3061E-02  4.3074E-02  -88.582
   253    1    0.1725    0.0000    0.0108   0.00167  1.0458E-03 -4.2243E-02  4.2256E-02  -88.582
   254    1    0.1742    0.0000    0.0108   0.00167  1.0253E-03 -4.1419E-02  4.1432E-02  -88.582
   255    1    0.1758    0.0000    0.0108   0.00167  1.0048E-03 -4.0591E-02  4.0604E-02  -88.582
   256    1    0.1775    0.0000    0.0108   0.00167  9.8412E-04 -3.9759E-02  3.9771E-02  -88.582
   257    1    0.1792    0.0000    0.0108   0.00167  9.6335E-04 -3.8922E-02  3.8933E-02  -88.582
   258    1    0.1809    0.0000    0.0108   0.00167  9.4248E-04 -3.8080E-02  3.8092E-02  -88.582
   259    1    0.1825    0.0000    0.0108   0.00167  9.2150E-04 -3.7235E-02  3.7246E-02  -88.582
   260    1    0.1842    0.0000    0.0108   0.00167  9.0043E-04 -3.6385E-02  3.6396E-02  -88.582
   261    1    0.1859    0.0000    0.0108   0.00167  8.7925E-04 -3.5531E-02  3.5542E-02  -88.582
   262    1    0.1876    0.0000    0.0108   0.00167  8.5798E-04 -3.4673E-02  3.4683E-02  -88.583
   263    1    0.1892    0.0000    0.0108   0.00167  8.3661E-04 -3.3811E-02  3.3821E-02  -88.583
   264    1    0.1909    0.0000    0.0108   0.00167  8.1515E-04 -3.2945E-02  3.2955E-02  -88.583
   265    1    0.1926    0.0000    0.0108   0.00167  7.9360E-04 -3.2076E-02  3.2086E-02  -88.583
   266    1    0.1943    0.0000    0.0108   0.00167  7.7196E-04 -3.1203E-02  3.1212E-02  -88.583
   267    1    0.1959    0.0000    0.0108   0.00167  7.5023E-04 -3.0326E-02  3.0336E-02  -88.583
   268    1    0.1976    0.0000    0.0108   0.00167  7.2843E-04 -2.9446E-02  2.9455E-02  -88.583
   269    1    0.1993    0.0000    0.0108   0.00167  7.0654E-04 -2.8563E-02  2.8572E-02  -88.583
   270    1    0.2010    0.0000    0.0108   0.00167  6.8457E-04 -2.7676E-02  2.7685E-02  -88.583
   271    1    0.2026    0.0000    0.0108   0.00167  6.6253E-04 -2.6786E-02  2.6794E-02  -88.583
   272    1    0.2043    0.0000    0.0108   0.00167  6.4041E-04 -2.5893E-02  2.5901E-02  -88.583
   273    1    0.2060    0.0000    0.0108   0.00167  6.1822E-04 -2.4997E-02  2.5005E-02  -88.583
   274    1    0.2077    0.0000    0.0108   0.00167  5.9595E-04 -2.4098E-02  2.4106E-02  -88.583
   275    1    0.2093    0.0000    0.0108   0.00167  5.7362E-04 -2.3196E-02  2.3203E-02  -88.583
   276    1    0.2110    0.0000    0.0108   0.00167  5.5122E-04 -2.2292E-02  2.2298E-02  -88.583
   277    1    0.2127    0.0000    0.0108   0.00167  5.2876E-04 -2.1384E-02  2.1391E-02  -88.584
   278    1    0.2144    0.0000    0.0108   0.00167  5.0623E-04 -2.0474E-02  2.0480E-02  -88.584
   279    1    0.2160    0.0000    0.0108   0.00167  4.8365E-04 -1.9562E-02  1.9568E-02  -88.584
   280    1    0.2177    0.0000    0.0108   0.00167  4.6100E-04 -1.8646E-02  1.8652E-02  -88.584
   281    1    0.2194    0.0000    0.0108   0.00167  4.3829E-04 -1.7729E-02  1.7734E-02  -88.584
   282    1    0.2211    0.0000    0.0108   0.00167  4.1553E-04 -1.6809E-02  1.6814E-02  -88.584
   283    1    0.2227    0.0000    0.0108   0.00167  3.9271E-04 -1.5886E-02  1.5891E-02  -88.584
   284    1    0.2244    0.0000    0.0108   0.00167  3.6983E-04 -1.4962E-02  1.4966E-02  -88.584
   285    1    0.2261    0.0000    0.0108   0.00167  3.4689E-04 -1.4035E-02  1.4039E-02  -88.584
   286    1    0.2278    0.0000    0.0108   0.00167  3.2390E-04 -1.3105E-02  1.3109E-02  -88.584
   287    1    0.2294    0.0000    0.0108   0.00167  3.0086E-04 -1.2173E-02  1.2177E-02  -88.584
   288    1    0.2311    0.0000    0.0108   0.00167  2.7775E-04 -1.1239E-02  1.1242E-02  -88.584
   289    1    0.2328    0.0000    0.0108   0.00167  2.5458E-04 -1.0302E-02  1.0305E-02  -88.584
   290    1    0.2345    0.0000    0.0108   0.00167  2.3134E-04 -9.3615E-03  9.3644E-03  -88.584
   291    1    0.2361    0.0000    0.0108   0.00167  2.0802E-04 -8.4184E-03  8.4210E-03  -88.585
   292    1    0.2378    0.0000    0.0108   0.00167  1.8462E-04 -7.4716E-03  7.4739E-03  -88.585
   293    1    0.2395    0.0000    0.0108   0.00167  1.6111E-04 -6.5206E-03  6.5226E-03  -88.585
   294    1    0.2412    0.0000    0.0108   0.00167  1.3748E-04 -5.5645E-03  5.5662E-03  -88.585
   295    1    0.2428    0.0000    0.0108   0.00167  1.1369E-04 -4.6017E-03  4.6031E-03  -88.585
   296    1    0.2445    0.0000    0.0108   0.00167  8.9681E-05 -3.6302E-03  3.6313E-03  -88.585
   297    1    0.2462    0.0000    0.0108   0.00167  6.5361E-05 -2.6459E-03  2.6467E-03  -88.585
   298    1    0.2479    0.0000    0.0108   0.00167  4.0526E-05 -1.6406E-03  1.6411E-03  -88.585
   299    1    0.2495    0.0000    0.0108   0.00167  1.4416E-05 -5.8363E-04  5.8381E-04  -88.585


                               ---------- POWER BUDGET ---------
                               INPUT POWER   =  1.1055E-03 Watts
                               RADIATED POWER=  1.1055E-03 Watts
                               STRUCTURE LOSS=  0.0000E+00 Watts
                               NETWORK LOSS  =  0.0000E+00 Watts
                               EFFICIENCY    =  100.00 Percent


                             ------- RADIATED FIELDS NEAR GROUND --------

    ------- LOCATION -------     --- E(THETA) ---     ---- E(PHI) ----    --- E(RADIAL) ---
      RHO    PHI        Z           MAG    PHASE         MAG    PHASE        MAG     PHASE
    METERS DEGREES    METERS      VOLTS/M DEGREES      VOLTS/M DEGREES     VOLTS/M  DEGREES
   1000.00    0.00      1.50   1.2840E-09  -17.01   0.0000E+00    0.00   0.0000E+00    0.00



*****  DATA CARD N0.   5 EN   0     0     0     0  0.00000E+00  0.00000E+00  0.00000E+00  0.00000E+00  0.00000E+00  0.00000E+00

  TOTAL RUN TIME: 2920 msec