


                               __________________________________________
                              |                                          |
                              |  NUMERICAL ELECTROMAGNETICS CODE (nec2c) |
                              |   Translated to 'C' in Double Precision  |
                              |__________________________________________|



                               ---------------- COMMENTS ----------------
                               NEC Input File of a 16 element Yagi
                              



                               -------- STRUCTURE SPECIFICATION --------
                                     COORDINATES MUST BE INPUT IN
                                     METERS OR BE SCALED TO METERS
                                     BEFORE STRUCTURE INPUT IS ENDED

  WIRE                                                                                 SEG FIRST  LAST  TAG
   No:        X1         Y1         Z1         X2         Y2         Z2       RADIUS   No:   SEG   SEG  No:
     1      0.0000    -0.3400     0.0000     0.0000     0.3400     0.0000     0.0025     7     1     7   15
     2      0.2730    -0.3175     0.0000     0.2730     0.3175     0.0000     0.0025     7     8    14   16
     3      0.6930    -0.3050     0.0000     0.6930     0.3050     0.0000     0.0025     7    15    21    1
     4      1.1130    -0.3050     0.0000     1.1130     0.3050     0.0000     0.0025     7    22    28    2
     5      1.5330    -0.3050     0.0000     1.5330     0.3050     0.0000     0.0025     7    29    35    3
     6      1.9530    -0.3050     0.0000     1.9530     0.3050     0.0000     0.0025     7    36    42    4
     7      2.3730    -0.3050     0.0000     2.3730     0.3050     0.0000     0.0025     7    43    49    5
     8      2.7930    -0.3050     0.0000     2.7930     0.3050     0.0000     0.0025     7    50    56    6
     9      3.2130    -0.3050     0.0000     3.2130     0.3050     0.0000     0.0025     7    57    63    7
    10      3.6330    -0.3050     0.0000     3.6330     0.3050     0.0000     0.0025     7    64    70    8
    11      4.0530    -0.3050     0.0000     4.0530     0.3050     0.0000     0.0025     7    71    77    9
    12      4.4730    -0.3050     0.0000     4.4730     0.3050     0.0000     0.0025     7    78    84   10
    13      4.8930    -0.3050     0.0000     4.8930     0.3050     0.0000     0.0025     7    85    91   11
    14      5.3130    -0.3050     0.0000     5.3130     0.3050     0.0000     0.0025     7    92    98   12
    15      5.7330    -0.3050     0.0000     5.7330     0.3050     0.0000     0.0025     7    99   105   13

     TOTAL SEGMENTS USED: 105   SEGMENTS IN A SYMMETRIC CELL: 105   SYMMETRY FLAG: 0


                               ---------- SEGMENTATION DATA ----------
                                        COORDINATES IN METERS
                            I+ AND I- INDICATE THE SEGMENTS BEFORE AND AFTER I

   SEG    COORDINATES OF SEGM CENTER     SEGM    ORIENTATION ANGLES    WIRE    CONNECTION DATA   TAG
   No:       X         Y         Z      LENGTH     ALPHA      BETA    RADIUS    I-     I    I+   No:
     1    0.0000   -0.2914    0.0000    0.0971    0.0000   90.0000    0.0025     0     1     2    15
     2    0.0000   -0.1943    0.0000    0.0971    0.0000   90.0000    0.0025     1     2     3    15
     3    0.0000   -0.0971    0.0000    0.0971    0.0000   90.0000    0.0025     2     3     4    15
     4    0.0000   -0.0000    0.0000    0.0971    0.0000   90.0000    0.0025     3     4     5    15
     5    0.0000    0.0971    0.0000    0.0971    0.0000   90.0000    0.0025     4     5     6    15
     6    0.0000    0.1943    0.0000    0.0971    0.0000   90.0000    0.0025     5     6     7    15
     7    0.0000    0.2914    0.0000    0.0971    0.0000   90.0000    0.0025     6     7     0    15
     8    0.2730   -0.2721    0.0000    0.0907    0.0000   90.0000    0.0025     0     8     9    16
     9    0.2730   -0.1814    0.0000    0.0907    0.0000   90.0000    0.0025     8     9    10    16
    10    0.2730   -0.0907    0.0000    0.0907    0.0000   90.0000    0.0025     9    10    11    16
    11    0.2730    0.0000    0.0000    0.0907    0.0000   90.0000    0.0025    10    11    12    16
    12    0.2730    0.0907    0.0000    0.0907    0.0000   90.0000    0.0025    11    12    13    16
    13    0.2730    0.1814    0.0000    0.0907    0.0000   90.0000    0.0025    12    13    14    16
    14    0.2730    0.2721    0.0000    0.0907    0.0000   90.0000    0.0025    13    14     0    16
    15    0.6930   -0.2614    0.0000    0.0871    0.0000   90.0000    0.0025     0    15    16     1
    16    0.6930   -0.1743    0.0000    0.0871    0.0000   90.0000    0.0025    15    16    17     1
    17    0.6930   -0.0871    0.0000    0.0871    0.0000   90.0000    0.0025    16    17    18     1
    18    0.6930   -0.0000    0.0000    0.0871    0.0000   90.0000    0.0025    17    18    19     1
    19    0.6930    0.0871    0.0000    0.0871    0.0000   90.0000    0.0025    18    19    20     1
    20    0.6930    0.1743    0.0000    0.0871    0.0000   90.0000    0.0025    19    20    21     1
    21    0.6930    0.2614    0.0000    0.0871    0.0000   90.0000    0.0025    20    21     0     1
    22    1.1130   -0.2614    0.0000    0.0871    0.0000   90.0000    0.0025     0    22    23     2
    23    1.1130   -0.1743    0.0000    0.0871    0.0000   90.0000    0.0025    22    23    24     2
    24    1.1130   -0.0871    0.0000    0.0871    0.0000   90.0000    0.0025    23    24    25     2
    25    1.1130   -0.0000    0.0000    0.0871    0.0000   90.0000    0.0025    24    25    26     2
    26    1.1130    0.0871    0.0000    0.0871    0.0000   90.0000    0.0025    25    26    27     2
    27    1.1130    0.1743    0.0000    0.0871    0.0000   90.0000    0.0025    26    27    28     2
    28    1.1130    0.2614    0.0000    0.0871    0.0000   90.0000    0.0025    27    28     0     2
    29    1.5330   -0.2614    0.0000    0.0871    0.0000   90.0000    0.0025     0    29    30     3
    30    1.5330   -0.1743    0.0000    0.0871    0.0000   90.0000    0.0025    29    30    31     3
    31    1.5330   -0.0871    0.0000    0.0871    0.0000   90.0000    0.0025    30    31    32     3
    32    1.5330   -0.0000    0.0000    0.0871    0.0000   90.0000    0.0025    31    32    33     3
    33    1.5330    0.0871    0.0000    0.0871    0.0000   90.0000    0.0025    32    33    34     3
    34    1.5330    0.1743    0.0000    0.0871    0.0000   90.0000    0.0025    33    34    35     3
    35    1.5330    0.2614    0.0000    0.0871    0.0000   90.0000    0.0025    34    35     0     3
    36    1.9530   -0.2614    0.0000    0.0871    0.0000   90.0000    0.0025     0    36    37     4
    37    1.9530   -0.1743    0.0000    0.0871    0.0000   90.0000    0.0025    36    37    38     4
    38    1.9530   -0.0871    0.0000    0.0871    0.0000   90.0000    0.0025    37    38    39     4
    39    1.9530   -0.0000    0.0000    0.0871    0.0000   90.0000    0.0025    38    39    40     4
    40    1.9530    0.0871    0.0000    0.0871    0.0000   90.0000    0.0025    39    40    41     4
    41    1.9530    0.1743    0.0000    0.0871    0.0000   90.0000    0.0025    40    41    42     4
    42    1.9530    0.2614    0.0000    0.0871    0.0000   90.0000    0.0025    41    42     0     4
    43    2.3730   -0.2614    0.0000    0.0871    0.0000   90.0000    0.0025     0    43    44     5
    44    2.3730   -0.1743    0.0000    0.0871    0.0000   90.0000    0.0025    43    44    45     5
    45    2.3730   -0.0871    0.0000    0.0871    0.0000   90.0000    0.0025    44    45    46     5
    46    2.3730   -0.0000    0.0000    0.0871    0.0000   90.0000    0.0025    45    46    47     5
    47    2.3730    0.0871    0.0000    0.0871    0.0000   90.0000    0.0025    46    47    48     5
    48    2.3730    0.1743    0.0000    0.0871    0.0000   90.0000    0.0025    47    48    49     5
    49    2.3730    0.2614    0.0000    0.0871    0.0000   90.0000    0.0025    48    49     0     5
    50    2.7930   -0.2614    0.0000    0.0871    0.0000   90.0000    0.0025     0    50    51     6
    51    2.7930   -0.1743    0.0000    0.0871    0.0000   90.0000    0.0025    50    51    52     6
    52    2.7930   -0.0871    0.0000    0.0871    0.0000   90.0000    0.0025    51    52    53     6
    53    2.7930   -0.0000    0.0000    0.0871    0.0000   90.0000    0.0025    52    53    54     6
    54    2.7930    0.0871    0.0000    0.0871    0.0000   90.0000    0.0025    53    54    55     6
    55    2.7930    0.1743    0.0000    0.0871    0.0000   90.0000    0.0025    54    55    56     6
    56    2.7930    0.2614    0.0000    0.0871    0.0000   90.0000    0.0025    55    56     0     6
    57    3.2130   -0.2614    0.0000    0.0871    0.0000   90.0000    0.0025     0    57    58     7
    58    3.2130   -0.1743    0.0000    0.0871    0.0000   90.0000    0.0025    57    58    59     7
    59    3.2130   -0.0871    0.0000    0.0871    0.0000   90.0000    0.0025    58    59    60     7
    60    3.2130   -0.0000    0.0000    0.0871    0.0000   90.0000    0.0025    59    60    61     7
    61    3.2130    0.0871    0.0000    0.0871    0.0000   90.0000    0.0025    60    61    62     7
    62    3.2130    0.1743    0.0000    0.0871    0.0000   90.0000    0.0025    61    62    63     7
    63    3.2130    0.2614    0.0000    0.0871    0.0000   90.0000    0.0025    62    63     0     7
    64    3.6330   -0.2614    0.0000    0.0871    0.0000   90.0000    0.0025     0    64    65     8
    65    3.6330   -0.1743    0.0000    0.0871    0.0000   90.0000    0.0025    64    65    66     8
    66    3.6330   -0.0871    0.0000    0.0871    0.0000   90.0000    0.0025    65    66    67     8
    67    3.6330   -0.0000    0.0000    0.0871    0.0000   90.0000    0.0025    66    67    68     8
    68    3.6330    0.0871    0.0000    0.0871    0.0000   90.0000    0.0025    67    68    69     8
    69    3.6330    0.1743    0.0000    0.0871    0.0000   90.0000    0.0025    68    69    70     8
    70    3.6330    0.2614    0.0000    0.0871    0.0000   90.0000    0.0025    69    70     0     8
    71    4.0530   -0.2614    0.0000    0.0871    0.0000   90.0000    0.0025     0    71    72     9
    72    4.0530   -0.1743    0.0000    0.0871    0.0000   90.0000    0.0025    71    72    73     9
    73    4.0530   -0.0871    0.0000    0.0871    0.0000   90.0000    0.0025    72    73    74     9
    74    4.0530   -0.0000    0.0000    0.0871    0.0000   90.0000    0.0025    73    74    75     9
    75    4.0530    0.0871    0.0000    0.0871    0.0000   90.0000    0.0025    74    75    76     9
    76    4.0530    0.1743    0.0000    0.0871    0.0000   90.0000    0.0025    75    76    77     9
    77    4.0530    0.2614    0.0000    0.0871    0.0000   90.0000    0.0025    76    77     0     9
    78    4.4730   -0.2614    0.0000    0.0871    0.0000   90.0000    0.0025     0    78    79    10
    79    4.4730   -0.1743    0.0000    0.0871    0.0000   90.0000    0.0025    78    79    80    10
    80    4.4730   -0.0871    0.0000    0.0871    0.0000   90.0000    0.0025    79    80    81    10
    81    4.4730   -0.0000    0.0000    0.0871    0.0000   90.0000    0.0025    80    81    82    10
    82    4.4730    0.0871    0.0000    0.0871    0.0000   90.0000    0.0025    81    82    83    10
    83    4.4730    0.1743    0.0000    0.0871    0.0000   90.0000    0.0025    82    83    84    10
    84    4.4730    0.2614    0.0000    0.0871    0.0000   90.0000    0.0025    83    84     0    10
    85    4.8930   -0.2614    0.0000    0.0871    0.0000   90.0000    0.0025     0    85    86    11
    86    4.8930   -0.1743    0.0000    0.0871    0.0000   90.0000    0.0025    85    86    87    11
    87    4.8930   -0.0871    0.0000    0.0871    0.0000   90.0000    0.0025    86    87    88    11
    88    4.8930   -0.0000    0.0000    0.0871    0.0000   90.0000    0.0025    87    88    89    11
    89    4.8930    0.0871    0.0000    0.0871    0.0000   90.0000    0.0025    88    89    90    11
    90    4.8930    0.1743    0.0000    0.0871    0.0000   90.0000    0.0025    89    90    91    11
    91    4.8930    0.2614    0.0000    0.0871    0.0000   90.0000    0.0025    90    91     0    11
    92    5.3130   -0.2614    0.0000    0.0871    0.0000   90.0000    0.0025     0    92    93    12
    93    5.3130   -0.1743    0.0000    0.0871    0.0000   90.0000    0.0025    92    93    94    12
    94    5.3130   -0.0871    0.0000    0.0871    0.0000   90.0000    0.0025    93    94    95    12
    95    5.3130   -0.0000    0.0000    0.0871    0.0000   90.0000    0.0025    94    95    96    12
    96    5.3130    0.0871    0.0000    0.0871    0.0000   90.0000    0.0025    95    96    97    12
    97    5.3130    0.1743    0.0000    0.0871    0.0000   90.0000    0.0025    96    97    98    12
    98    5.3130    0.2614    0.0000    0.0871    0.0000   90.0000    0.0025    97    98     0    12
    99    5.7330   -0.2614    0.0000    0.0871    0.0000   90.0000    0.0025     0    99   100    13
   100    5.7330   -0.1743    0.0000    0.0871    0.0000   90.0000    0.0025    99   100   101    13
   101    5.7330   -0.0871    0.0000    0.0871    0.0000   90.0000    0.0025   100   101   102    13
   102    5.7330   -0.0000    0.0000    0.0871    0.0000   90.0000    0.0025   101   102   103    13
   103    5.7330    0.0871    0.0000    0.0871    0.0000   90.0000    0.0025   102   103   104    13
   104    5.7330    0.1743    0.0000    0.0871    0.0000   90.0000    0.0025   103   104   105    13
   105    5.7330    0.2614    0.0000    0.0871    0.0000   90.0000    0.0025   104   105     0    13



  DATA CARD No:   1 FR   0     1     0     0  2.20000E+02  0.00000E+00  0.00000E+00  0.00000E+00  0.00000E+00  0.00000E+00
  DATA CARD No:   2 EX   0    16     4     0  1.00000E+00  0.00000E+00  0.00000E+00  0.00000E+00  0.00000E+00  0.00000E+00
  DATA CARD No:   3 RP   0    60   120  1001  0.00000E+00  0.00000E+00  1.50000E+00  3.00000E+00  1.00000E+04  0.00000E+00


                               --------- FREQUENCY --------
                                FREQUENCY : 2.2000E+02 MHz
                                WAVELENGTH: 1.3627E+00 Mtr

                        APPROXIMATE INTEGRATION EMPLOYED FOR SEGMENTS 
                        THAT ARE MORE THAN 1.000 WAVELENGTHS APART


                          ------ STRUCTURE IMPEDANCE LOADING ------
                                 THIS STRUCTURE IS NOT LOADED


                            -------- ANTENNA ENVIRONMENT --------
                            FREE SPACE


                             ---------- MATRIX TIMING ----------
                               FILL: 40 msec  FACTOR: 20 msec


                        --------- ANTENNA INPUT PARAMETERS ---------
  TAG   SEG       VOLTAGE (VOLTS)         CURRENT (AMPS)         IMPEDANCE (OHMS)        ADMITTANCE (MHOS)     POWER
  No:   No:     REAL      IMAGINARY     REAL      IMAGINARY     REAL      IMAGINARY    REAL       IMAGINARY   (WATTS)
   16    11  1.0000E+00  0.0000E+00  3.7977E-02 -3.1739E-03  2.6149E+01  2.1854E+00  3.7977E-02 -3.1739E-03  1.8989E-02


                           -------- CURRENTS AND LOCATION --------
                                  DISTANCES IN WAVELENGTHS

   SEG  TAG    COORDINATES OF SEGM CENTER     SEGM    ------------- CURRENT (AMPS) -------------
   No:  No:       X         Y         Z      LENGTH     REAL      IMAGINARY    MAGN        PHASE
     1   15    0.0000   -0.2139    0.0000   0.07129 -2.6066E-03  2.2397E-03  3.4366E-03  139.329
     2   15    0.0000   -0.1426    0.0000   0.07129 -6.6251E-03  5.5751E-03  8.6588E-03  139.919
     3   15    0.0000   -0.0713    0.0000   0.07129 -9.3135E-03  7.7318E-03  1.2105E-02  140.301
     4   15    0.0000   -0.0000    0.0000   0.07129 -1.0275E-02  8.4904E-03  1.3329E-02  140.431
     5   15    0.0000    0.0713    0.0000   0.07129 -9.3135E-03  7.7318E-03  1.2105E-02  140.301
     6   15    0.0000    0.1426    0.0000   0.07129 -6.6251E-03  5.5751E-03  8.6588E-03  139.919
     7   15    0.0000    0.2139    0.0000   0.07129 -2.6066E-03  2.2397E-03  3.4366E-03  139.329
     8   16    0.2003   -0.1997    0.0000   0.06657  1.0271E-02 -1.2740E-03  1.0349E-02   -7.071
     9   16    0.2003   -0.1331    0.0000   0.06657  2.5188E-02 -2.8692E-03  2.5350E-02   -6.499
    10   16    0.2003   -0.0666    0.0000   0.06657  3.4666E-02 -3.4572E-03  3.4838E-02   -5.695
    11   16    0.2003    0.0000    0.0000   0.06657  3.7977E-02 -3.1739E-03  3.8110E-02   -4.777
    12   16    0.2003    0.0666    0.0000   0.06657  3.4666E-02 -3.4572E-03  3.4838E-02   -5.695
    13   16    0.2003    0.1331    0.0000   0.06657  2.5188E-02 -2.8692E-03  2.5350E-02   -6.499
    14   16    0.2003    0.1997    0.0000   0.06657  1.0271E-02 -1.2740E-03  1.0349E-02   -7.071
    15    1    0.5085   -0.1918    0.0000   0.06395 -1.1600E-02 -2.6909E-03  1.1908E-02 -166.940
    16    1    0.5085   -0.1279    0.0000   0.06395 -2.8180E-02 -6.5450E-03  2.8930E-02 -166.925
    17    1    0.5085   -0.0639    0.0000   0.06395 -3.8593E-02 -8.9698E-03  3.9622E-02 -166.916
    18    1    0.5085   -0.0000    0.0000   0.06395 -4.2214E-02 -9.8136E-03  4.3340E-02 -166.913
    19    1    0.5085    0.0639    0.0000   0.06395 -3.8593E-02 -8.9698E-03  3.9622E-02 -166.916
    20    1    0.5085    0.1279    0.0000   0.06395 -2.8180E-02 -6.5450E-03  2.8930E-02 -166.925
    21    1    0.5085    0.1918    0.0000   0.06395 -1.1600E-02 -2.6909E-03  1.1908E-02 -166.940
    22    2    0.8167   -0.1918    0.0000   0.06395  1.3291E-02  6.4983E-03  1.4795E-02   26.054
    23    2    0.8167   -0.1279    0.0000   0.06395  3.2264E-02  1.5779E-02  3.5916E-02   26.061
    24    2    0.8167   -0.0639    0.0000   0.06395  4.4164E-02  2.1602E-02  4.9164E-02   26.065
    25    2    0.8167   -0.0000    0.0000   0.06395  4.8299E-02  2.3626E-02  5.3767E-02   26.066
    26    2    0.8167    0.0639    0.0000   0.06395  4.4164E-02  2.1602E-02  4.9164E-02   26.065
    27    2    0.8167    0.1279    0.0000   0.06395  3.2264E-02  1.5779E-02  3.5916E-02   26.061
    28    2    0.8167    0.1918    0.0000   0.06395  1.3291E-02  6.4983E-03  1.4795E-02   26.054
    29    3    1.1249   -0.1918    0.0000   0.06395 -9.8085E-03 -7.9335E-03  1.2615E-02 -141.033
    30    3    1.1249   -0.1279    0.0000   0.06395 -2.3811E-02 -1.9259E-02  3.0625E-02 -141.034
    31    3    1.1249   -0.0639    0.0000   0.06395 -3.2595E-02 -2.6363E-02  4.1922E-02 -141.034
    32    3    1.1249   -0.0000    0.0000   0.06395 -3.5647E-02 -2.8831E-02  4.5847E-02 -141.035
    33    3    1.1249    0.0639    0.0000   0.06395 -3.2595E-02 -2.6363E-02  4.1922E-02 -141.034
    34    3    1.1249    0.1279    0.0000   0.06395 -2.3811E-02 -1.9259E-02  3.0625E-02 -141.034
    35    3    1.1249    0.1918    0.0000   0.06395 -9.8085E-03 -7.9335E-03  1.2615E-02 -141.033
    36    4    1.4332   -0.1918    0.0000   0.06395  1.7221E-03  6.2535E-03  6.4863E-03   74.603
    37    4    1.4332   -0.1279    0.0000   0.06395  4.1821E-03  1.5181E-02  1.5747E-02   74.598
    38    4    1.4332   -0.0639    0.0000   0.06395  5.7257E-03  2.0781E-02  2.1555E-02   74.596
    39    4    1.4332   -0.0000    0.0000   0.06395  6.2621E-03  2.2727E-02  2.3574E-02   74.595
    40    4    1.4332    0.0639    0.0000   0.06395  5.7257E-03  2.0781E-02  2.1555E-02   74.596
    41    4    1.4332    0.1279    0.0000   0.06395  4.1821E-03  1.5181E-02  1.5747E-02   74.598
    42    4    1.4332    0.1918    0.0000   0.06395  1.7221E-03  6.2535E-03  6.4863E-03   74.603
    43    5    1.7414   -0.1918    0.0000   0.06395  7.5334E-03 -1.7620E-03  7.7367E-03  -13.165
    44    5    1.7414   -0.1279    0.0000   0.06395  1.8288E-02 -4.2781E-03  1.8782E-02  -13.166
    45    5    1.7414   -0.0639    0.0000   0.06395  2.5035E-02 -5.8565E-03  2.5711E-02  -13.167
    46    5    1.7414   -0.0000    0.0000   0.06395  2.7379E-02 -6.4050E-03  2.8118E-02  -13.167
    47    5    1.7414    0.0639    0.0000   0.06395  2.5035E-02 -5.8565E-03  2.5711E-02  -13.167
    48    5    1.7414    0.1279    0.0000   0.06395  1.8288E-02 -4.2781E-03  1.8782E-02  -13.166
    49    5    1.7414    0.1918    0.0000   0.06395  7.5334E-03 -1.7620E-03  7.7367E-03  -13.165
    50    6    2.0496   -0.1918    0.0000   0.06395 -1.3514E-02 -3.7067E-03  1.4013E-02 -164.661
    51    6    2.0496   -0.1279    0.0000   0.06395 -3.2808E-02 -8.9987E-03  3.4020E-02 -164.662
    52    6    2.0496   -0.0639    0.0000   0.06395 -4.4912E-02 -1.2318E-02  4.6570E-02 -164.662
    53    6    2.0496   -0.0000    0.0000   0.06395 -4.9118E-02 -1.3472E-02  5.0932E-02 -164.663
    54    6    2.0496    0.0639    0.0000   0.06395 -4.4912E-02 -1.2318E-02  4.6570E-02 -164.662
    55    6    2.0496    0.1279    0.0000   0.06395 -3.2808E-02 -8.9987E-03  3.4020E-02 -164.662
    56    6    2.0496    0.1918    0.0000   0.06395 -1.3514E-02 -3.7067E-03  1.4013E-02 -164.661
    57    7    2.3578   -0.1918    0.0000   0.06395  1.3216E-02  7.5930E-03  1.5242E-02   29.879
    58    7    2.3578   -0.1279    0.0000   0.06395  3.2086E-02  1.8434E-02  3.7004E-02   29.878
    59    7    2.3578   -0.0639    0.0000   0.06395  4.3923E-02  2.5235E-02  5.0656E-02   29.878
    60    7    2.3578   -0.0000    0.0000   0.06395  4.8037E-02  2.7598E-02  5.5400E-02   29.878
    61    7    2.3578    0.0639    0.0000   0.06395  4.3923E-02  2.5235E-02  5.0656E-02   29.878
    62    7    2.3578    0.1279    0.0000   0.06395  3.2086E-02  1.8434E-02  3.7004E-02   29.878
    63    7    2.3578    0.1918    0.0000   0.06395  1.3216E-02  7.5930E-03  1.5242E-02   29.879
    64    8    2.6660   -0.1918    0.0000   0.06395 -6.7402E-03 -8.0204E-03  1.0476E-02 -130.043
    65    8    2.6660   -0.1279    0.0000   0.06395 -1.6363E-02 -1.9472E-02  2.5434E-02 -130.042
    66    8    2.6660   -0.0639    0.0000   0.06395 -2.2400E-02 -2.6655E-02  3.4818E-02 -130.042
    67    8    2.6660   -0.0000    0.0000   0.06395 -2.4498E-02 -2.9152E-02  3.8078E-02 -130.042
    68    8    2.6660    0.0639    0.0000   0.06395 -2.2400E-02 -2.6655E-02  3.4818E-02 -130.042
    69    8    2.6660    0.1279    0.0000   0.06395 -1.6363E-02 -1.9472E-02  2.5434E-02 -130.042
    70    8    2.6660    0.1918    0.0000   0.06395 -6.7402E-03 -8.0204E-03  1.0476E-02 -130.043
    71    9    2.9742   -0.1918    0.0000   0.06395 -2.7714E-03  4.8015E-03  5.5439E-03  119.993
    72    9    2.9742   -0.1279    0.0000   0.06395 -6.7291E-03  1.1657E-02  1.3460E-02  119.996
    73    9    2.9742   -0.0639    0.0000   0.06395 -9.2121E-03  1.5958E-02  1.8426E-02  119.997
    74    9    2.9742   -0.0000    0.0000   0.06395 -1.0075E-02  1.7452E-02  2.0152E-02  119.997
    75    9    2.9742    0.0639    0.0000   0.06395 -9.2121E-03  1.5958E-02  1.8426E-02  119.997
    76    9    2.9742    0.1279    0.0000   0.06395 -6.7291E-03  1.1657E-02  1.3460E-02  119.996
    77    9    2.9742    0.1918    0.0000   0.06395 -2.7714E-03  4.8015E-03  5.5439E-03  119.993
    78   10    3.2824   -0.1918    0.0000   0.06395  1.0806E-02  5.7167E-04  1.0821E-02    3.028
    79   10    3.2824   -0.1279    0.0000   0.06395  2.6235E-02  1.3875E-03  2.6272E-02    3.027
    80   10    3.2824   -0.0639    0.0000   0.06395  3.5914E-02  1.8990E-03  3.5964E-02    3.027
    81   10    3.2824   -0.0000    0.0000   0.06395  3.9277E-02  2.0767E-03  3.9332E-02    3.027
    82   10    3.2824    0.0639    0.0000   0.06395  3.5914E-02  1.8990E-03  3.5964E-02    3.027
    83   10    3.2824    0.1279    0.0000   0.06395  2.6235E-02  1.3875E-03  2.6272E-02    3.027
    84   10    3.2824    0.1918    0.0000   0.06395  1.0806E-02  5.7167E-04  1.0821E-02    3.028
    85   11    3.5906   -0.1918    0.0000   0.06395 -1.3778E-02 -5.7595E-03  1.4933E-02 -157.314
    86   11    3.5906   -0.1279    0.0000   0.06395 -3.3448E-02 -1.3983E-02  3.6253E-02 -157.312
    87   11    3.5906   -0.0639    0.0000   0.06395 -4.5786E-02 -1.9141E-02  4.9626E-02 -157.312
    88   11    3.5906   -0.0000    0.0000   0.06395 -5.0073E-02 -2.0934E-02  5.4273E-02 -157.312
    89   11    3.5906    0.0639    0.0000   0.06395 -4.5786E-02 -1.9141E-02  4.9626E-02 -157.312
    90   11    3.5906    0.1279    0.0000   0.06395 -3.3448E-02 -1.3983E-02  3.6253E-02 -157.312
    91   11    3.5906    0.1918    0.0000   0.06395 -1.3778E-02 -5.7595E-03  1.4933E-02 -157.314
    92   12    3.8988   -0.1918    0.0000   0.06395  1.0719E-02  8.5500E-03  1.3711E-02   38.577
    93   12    3.8988   -0.1279    0.0000   0.06395  2.6023E-02  2.0761E-02  3.3290E-02   38.582
    94   12    3.8988   -0.0639    0.0000   0.06395  3.5623E-02  2.8422E-02  4.5572E-02   38.585
    95   12    3.8988   -0.0000    0.0000   0.06395  3.8959E-02  3.1085E-02  4.9840E-02   38.586
    96   12    3.8988    0.0639    0.0000   0.06395  3.5623E-02  2.8422E-02  4.5572E-02   38.585
    97   12    3.8988    0.1279    0.0000   0.06395  2.6023E-02  2.0761E-02  3.3290E-02   38.582
    98   12    3.8988    0.1918    0.0000   0.06395  1.0719E-02  8.5500E-03  1.3711E-02   38.577
    99   13    4.2070   -0.1918    0.0000   0.06395 -3.5154E-03 -7.3378E-03  8.1364E-03 -115.598
   100   13    4.2070   -0.1279    0.0000   0.06395 -8.5547E-03 -1.7804E-02  1.9752E-02 -115.664
   101   13    4.2070   -0.0639    0.0000   0.06395 -1.1728E-02 -2.4362E-02  2.7038E-02 -115.707
   102   13    4.2070   -0.0000    0.0000   0.06395 -1.2833E-02 -2.6640E-02  2.9570E-02 -115.722
   103   13    4.2070    0.0639    0.0000   0.06395 -1.1728E-02 -2.4362E-02  2.7038E-02 -115.707
   104   13    4.2070    0.1279    0.0000   0.06395 -8.5547E-03 -1.7804E-02  1.9752E-02 -115.664
   105   13    4.2070    0.1918    0.0000   0.06395 -3.5154E-03 -7.3378E-03  8.1364E-03 -115.598


                               ---------- POWER BUDGET ---------
                               INPUT POWER   =  1.8989E-02 Watts
                               RADIATED POWER=  1.8989E-02 Watts
                               STRUCTURE LOSS=  0.0000E+00 Watts
                               NETWORK LOSS  =  0.0000E+00 Watts
                               EFFICIENCY    =  100.00 Percent


                             ---------- RADIATION PATTERNS -----------

                             RANGE:  1.000000E+04 METERS
                             EXP(-JKR)/R:  1.00000E-04 AT PHASE:  -81.17 DEGREES

 ---- ANGLES -----     ----- POWER GAINS -----       ---- POLARIZATION ----   ---- E(THETA) ----    ----- E(PHI) ------
  THETA      PHI       VERTC    HORIZ    TOTAL       AXIAL      TILT  SENSE   MAGNITUDE    PHASE    MAGNITUDE     PHASE
 DEGREES   DEGREES        DB       DB       DB       RATIO   DEGREES            VOLTS/M   DEGREES     VOLTS/M   DEGREES
    0.00      0.00   -999.99    -3.23    -3.23      0.0000    -90.00 LINEAR  0.0000E+00    -81.17  7.3573E-05   -195.41
    1.50      0.00   -999.99    -0.17    -0.17      0.0000    -90.00 LINEAR  0.0000E+00    -81.17  1.0463E-04   -176.42
    3.00      0.00   -999.99     1.31     1.31      0.0000     90.00 LINEAR  0.0000E+00    -81.17  1.2412E-04   -156.39
    4.50      0.00   -999.99     1.65     1.65      0.0000     90.00 LINEAR  0.0000E+00    -81.17  1.2909E-04   -136.06
    6.00      0.00   -999.99     0.90     0.90      0.0000     90.00 LINEAR  0.0000E+00    -81.17  1.1835E-04   -115.77
    7.50      0.00   -999.99    -1.23    -1.23      0.0000     90.00 LINEAR  0.0000E+00    -81.17  9.2631E-05    -95.87
    9.00      0.00   -999.99    -5.81    -5.81      0.0000     90.00 LINEAR  0.0000E+00    -81.17  5.4654E-05    -77.49
   10.50      0.00   -999.99   -20.76   -20.76      0.0000     90.00 LINEAR  0.0000E+00    -81.17  9.7808E-06    -83.78
   12.00      0.00   -999.99    -8.33    -8.33      0.0000    -90.00 LINEAR  0.0000E+00    -81.17  4.0908E-05   -203.44
   13.50      0.00   -999.99    -1.83    -1.83      0.0000    -90.00 LINEAR  0.0000E+00    -81.17  8.6409E-05   -186.84
   15.00      0.00   -999.99     1.26     1.26      0.0000     90.00 LINEAR  0.0000E+00    -81.17  1.2333E-04   -167.49
   16.50      0.00   -999.99     2.78     2.78      0.0000     90.00 LINEAR  0.0000E+00    -81.17  1.4698E-04   -147.57
   18.00      0.00   -999.99     3.20     3.20      0.0000     90.00 LINEAR  0.0000E+00    -81.17  1.5427E-04   -127.45
   19.50      0.00   -999.99     2.61     2.61      0.0000     90.00 LINEAR  0.0000E+00    -81.17  1.4403E-04   -107.14
   21.00      0.00   -999.99     0.81     0.81      0.0000     90.00 LINEAR  0.0000E+00    -81.17  1.1712E-04    -86.46
   22.50      0.00   -999.99    -2.91    -2.91      0.0000     90.00 LINEAR  0.0000E+00    -81.17  7.6363E-05    -64.48
   24.00      0.00   -999.99   -12.03   -12.03      0.0000     90.00 LINEAR  0.0000E+00    -81.17  2.6717E-05    -32.64
   25.50      0.00   -999.99   -10.79   -10.79      0.0000    -90.00 LINEAR  0.0000E+00    -81.17  3.0792E-05   -228.04
   27.00      0.00   -999.99    -2.13    -2.13      0.0000    -90.00 LINEAR  0.0000E+00    -81.17  8.3470E-05   -198.46
   28.50      0.00   -999.99     1.70     1.70      0.0000    -90.00 LINEAR  0.0000E+00    -81.17  1.2982E-04   -177.10
   30.00      0.00   -999.99     3.77     3.77      0.0000     90.00 LINEAR  0.0000E+00    -81.17  1.6462E-04   -157.08
   31.50      0.00   -999.99     4.75     4.75      0.0000     90.00 LINEAR  0.0000E+00    -81.17  1.8440E-04   -137.45
   33.00      0.00   -999.99     4.89     4.89      0.0000     90.00 LINEAR  0.0000E+00    -81.17  1.8735E-04   -117.80
   34.50      0.00   -999.99     4.22     4.22      0.0000     90.00 LINEAR  0.0000E+00    -81.17  1.7339E-04    -97.71
   36.00      0.00   -999.99     2.62     2.62      0.0000     90.00 LINEAR  0.0000E+00    -81.17  1.4425E-04    -76.32
   37.50      0.00   -999.99    -0.25    -0.25      0.0000     90.00 LINEAR  0.0000E+00    -81.17  1.0368E-04    -51.15
   39.00      0.00   -999.99    -4.99    -4.99      0.0000     90.00 LINEAR  0.0000E+00    -81.17  6.0058E-05    -12.04
   40.50      0.00   -999.99    -7.24    -7.24      0.0000    -90.00 LINEAR  0.0000E+00    -81.17  4.6349E-05     69.15
   42.00      0.00   -999.99    -1.90    -1.90      0.0000    -90.00 LINEAR  0.0000E+00    -81.17  8.5745E-05   -234.65
   43.50      0.00   -999.99     2.03     2.03      0.0000    -90.00 LINEAR  0.0000E+00    -81.17  1.3486E-04   -206.21
   45.00      0.00   -999.99     4.49     4.49      0.0000    -90.00 LINEAR  0.0000E+00    -81.17  1.7897E-04   -184.80
   46.50      0.00   -999.99     6.02     6.02      0.0000     90.00 LINEAR  0.0000E+00    -81.17  2.1333E-04   -165.87
   48.00      0.00   -999.99     6.88     6.88      0.0000     90.00 LINEAR  0.0000E+00    -81.17  2.3558E-04   -148.00
   49.50      0.00   -999.99     7.21     7.21      0.0000     90.00 LINEAR  0.0000E+00    -81.17  2.4477E-04   -130.54
   51.00      0.00   -999.99     7.08     7.08      0.0000     90.00 LINEAR  0.0000E+00    -81.17  2.4116E-04   -113.01
   52.50      0.00   -999.99     6.53     6.53      0.0000     90.00 LINEAR  0.0000E+00    -81.17  2.2617E-04    -94.87
   54.00      0.00   -999.99     5.56     5.56      0.0000     90.00 LINEAR  0.0000E+00    -81.17  2.0238E-04    -75.35
   55.50      0.00   -999.99     4.24     4.24      0.0000     90.00 LINEAR  0.0000E+00    -81.17  1.7380E-04    -53.19
   57.00      0.00   -999.99     2.76     2.76      0.0000     90.00 LINEAR  0.0000E+00    -81.17  1.4658E-04    -26.52
   58.50      0.00   -999.99     1.69     1.69      0.0000     90.00 LINEAR  0.0000E+00    -81.17  1.2966E-04      6.02
   60.00      0.00   -999.99     1.82     1.82      0.0000    -90.00 LINEAR  0.0000E+00    -81.17  1.3162E-04     41.20
   61.50      0.00   -999.99     3.09     3.09      0.0000    -90.00 LINEAR  0.0000E+00    -81.17  1.5230E-04     72.11
   63.00      0.00   -999.99     4.72     4.72      0.0000    -90.00 LINEAR  0.0000E+00    -81.17  1.8368E-04     96.29
   64.50      0.00   -999.99     6.22     6.22      0.0000    -90.00 LINEAR  0.0000E+00    -81.17  2.1829E-04   -244.69
   66.00      0.00   -999.99     7.45     7.45      0.0000    -90.00 LINEAR  0.0000E+00    -81.17  2.5166E-04   -229.03
   67.50      0.00   -999.99     8.42     8.42      0.0000    -90.00 LINEAR  0.0000E+00    -81.17  2.8138E-04   -215.59
   69.00      0.00   -999.99     9.16     9.16      0.0000    -90.00 LINEAR  0.0000E+00    -81.17  3.0623E-04   -203.71
   70.50      0.00   -999.99     9.69     9.69      0.0000    -90.00 LINEAR  0.0000E+00    -81.17  3.2577E-04   -192.99
   72.00      0.00   -999.99    10.07    10.07      0.0000    -90.00 LINEAR  0.0000E+00    -81.17  3.4006E-04   -183.20
   73.50      0.00   -999.99    10.30    10.30      0.0000    -90.00 LINEAR  0.0000E+00    -81.17  3.4947E-04   -174.20
   75.00      0.00   -999.99    10.43    10.43      0.0000     90.00 LINEAR  0.0000E+00    -81.17  3.5464E-04   -165.90
   76.50      0.00   -999.99    10.47    10.47      0.0000     90.00 LINEAR  0.0000E+00    -81.17  3.5632E-04   -158.25
   78.00      0.00   -999.99    10.45    10.45      0.0000     90.00 LINEAR  0.0000E+00    -81.17  3.5533E-04   -151.23
   79.50      0.00   -999.99    10.38    10.38      0.0000     90.00 LINEAR  0.0000E+00    -81.17  3.5248E-04   -144.87
   81.00      0.00   -999.99    10.28    10.28      0.0000     90.00 LINEAR  0.0000E+00    -81.17  3.4854E-04   -139.17
   82.50      0.00   -999.99    10.17    10.17      0.0000     90.00 LINEAR  0.0000E+00    -81.17  3.4416E-04   -134.20
   84.00      0.00   -999.99    10.06    10.06      0.0000     90.00 LINEAR  0.0000E+00    -81.17  3.3990E-04   -130.01
   85.50      0.00   -999.99     9.97     9.97      0.0000     90.00 LINEAR  0.0000E+00    -81.17  3.3619E-04   -126.67
   87.00      0.00   -999.99     9.89     9.89      0.0000     90.00 LINEAR  0.0000E+00    -81.17  3.3334E-04   -124.23
   88.50      0.00   -999.99     9.85     9.85      0.0000     90.00 LINEAR  0.0000E+00    -81.17  3.3156E-04   -122.74
    0.00      3.00    -28.85    -3.24    -3.23      0.0000     87.00 LINEAR  3.8505E-06   -195.41  7.3473E-05   -195.41
    1.50      3.00    -25.80    -0.19    -0.17      0.0000     87.00 LINEAR  5.4721E-06   -176.45  1.0445E-04   -176.45
    3.00      3.00    -24.32     1.30     1.31      0.0000     87.00 LINEAR  6.4854E-06   -156.44  1.2392E-04   -156.44
    4.50      3.00    -24.00     1.64     1.66      0.0000     87.01 LINEAR  6.7361E-06   -136.15  1.2893E-04   -136.15
    6.00      3.00    -24.76     0.90     0.91      0.0000     87.02 LINEAR  6.1651E-06   -115.88  1.1828E-04   -115.88
    7.50      3.00    -26.91    -1.22    -1.21      0.0000     87.03 LINEAR  4.8180E-06    -96.00  9.2726E-05    -96.00
    9.00      3.00    -31.49    -5.77    -5.76      0.0000     87.04 LINEAR  2.8434E-06    -77.62  5.4932E-05    -77.62
   10.50      3.00    -46.18   -20.42   -20.41      0.0000     87.05 LINEAR  5.2387E-07    -82.56  1.0166E-05    -82.56
   12.00      3.00    -34.26    -8.45    -8.44      0.0000     87.07 LINEAR  2.0669E-06   -203.58  4.0320E-05   -203.58
   13.50      3.00    -27.75    -1.90    -1.89      0.0000     87.08 LINEAR  4.3703E-06   -187.08  8.5759E-05   -187.08
   15.00      3.00    -24.70     1.22     1.23      0.0000     87.10 LINEAR  6.2126E-06   -167.76  1.2272E-04   -167.76
   16.50      3.00    -23.22     2.75     2.77      0.0000     87.12 LINEAR  7.3629E-06   -147.88  1.4653E-04   -147.88
   18.00      3.00    -22.86     3.19     3.20      0.0000     87.15 LINEAR  7.6794E-06   -127.79  1.5407E-04   -127.79
   19.50      3.00    -23.51     2.61     2.62      0.0000     87.17 LINEAR  7.1221E-06   -107.52  1.4417E-04   -107.52
   21.00      3.00    -25.36     0.85     0.86      0.0000     87.20 LINEAR  5.7556E-06    -86.88  1.1764E-04    -86.88
   22.50      3.00    -29.11    -2.81    -2.80      0.0000     87.23 LINEAR  3.7404E-06    -64.99  7.7251E-05    -64.99
   24.00      3.00    -38.06   -11.66   -11.65      0.0000     87.26 LINEAR  1.3340E-06    -33.92  2.7863E-05    -33.92
   25.50      3.00    -37.69   -11.19   -11.18      0.0000     87.29 LINEAR  1.3921E-06   -229.27  2.9430E-05   -229.27
   27.00      3.00    -28.90    -2.29    -2.28      0.0000     87.33 LINEAR  3.8289E-06   -199.07  8.1998E-05   -199.07
   28.50      3.00    -25.12     1.61     1.62      0.0000     87.36 LINEAR  5.9158E-06   -177.69  1.2845E-04   -177.69
   30.00      3.00    -23.15     3.71     3.72      0.0000     87.40 LINEAR  7.4217E-06   -157.68  1.6352E-04   -157.68
   31.50      3.00    -22.28     4.72     4.73      0.0000     87.44 LINEAR  8.2105E-06   -138.07  1.8374E-04   -138.07
   33.00      3.00    -22.26     4.88     4.89      0.0000     87.48 LINEAR  8.2298E-06   -118.47  1.8724E-04   -118.47
   34.50      3.00    -23.05     4.24     4.25      0.0000     87.53 LINEAR  7.5108E-06    -98.45  1.7390E-04    -98.45
   36.00      3.00    -24.77     2.69     2.69      0.0000     87.57 LINEAR  6.1634E-06    -77.17  1.4537E-04    -77.17
   37.50      3.00    -27.74    -0.12    -0.11      0.0000     87.62 LINEAR  4.3777E-06    -52.31  1.0529E-04    -52.31
   39.00      3.00    -32.57    -4.77    -4.76      0.0000     87.67 LINEAR  2.5094E-06    -14.36  6.1613E-05    -14.36
   40.50      3.00    -35.41    -7.41    -7.41      0.0000     87.72 LINEAR  1.8108E-06     65.31  4.5439E-05     65.31
   42.00      3.00    -30.34    -2.15    -2.14      0.0000     87.77 LINEAR  3.2454E-06   -236.38  8.3329E-05   -236.38
   43.50      3.00    -26.53     1.87     1.87      0.0000     87.82 LINEAR  5.0284E-06   -207.39  1.3227E-04   -207.39
   45.00      3.00    -24.25     4.38     4.38      0.0000     87.88 LINEAR  6.5438E-06   -185.85  1.7658E-04   -185.85
   46.50      3.00    -22.92     5.94     5.94      0.0000     87.93 LINEAR  7.6257E-06   -166.88  2.1138E-04   -166.88
   48.00      3.00    -22.27     6.83     6.84      0.0000     87.99 LINEAR  8.2145E-06   -149.02  2.3425E-04   -149.02
   49.50      3.00    -22.17     7.19     7.20      0.0000     88.05 LINEAR  8.3104E-06   -131.61  2.4416E-04   -131.61
   51.00      3.00    -22.55     7.09     7.09      0.0000     88.11 LINEAR  7.9597E-06   -114.15  2.4134E-04   -114.15
   52.50      3.00    -23.36     6.56     6.57      0.0000     88.17 LINEAR  7.2457E-06    -96.14  2.2711E-04    -96.14
   54.00      3.00    -24.60     5.63     5.63      0.0000     88.24 LINEAR  6.2826E-06    -76.83  2.0395E-04    -76.83
   55.50      3.00    -26.22     4.33     4.34      0.0000     88.30 LINEAR  5.2158E-06    -55.01  1.7571E-04    -55.01
   57.00      3.00    -28.03     2.86     2.86      0.0000     88.37 LINEAR  4.2318E-06    -28.87  1.4826E-04    -28.87
   58.50      3.00    -29.52     1.73     1.73      0.0000     88.43 LINEAR  3.5658E-06      3.05  1.3022E-04      3.05
   60.00      3.00    -29.89     1.74     1.74      0.0000     88.50 LINEAR  3.4160E-06     38.11  1.3036E-04     38.11
   61.50      3.00    -29.11     2.93     2.93      0.0000     88.57 LINEAR  3.7372E-06     69.44  1.4945E-04     69.44
   63.00      3.00    -27.93     4.54     4.54      0.0000     88.64 LINEAR  4.2803E-06     94.09  1.7990E-04     94.09
   64.50      3.00    -26.88     6.05     6.05      0.0000     88.71 LINEAR  4.8312E-06   -246.58  2.1413E-04   -246.58
   66.00      3.00    -26.12     7.31     7.31      0.0000     88.78 LINEAR  5.2751E-06   -230.73  2.4747E-04   -230.73
   67.50      3.00    -25.66     8.30     8.30      0.0000     88.85 LINEAR  5.5632E-06   -217.19  2.7739E-04   -217.19
   69.00      3.00    -25.47     9.05     9.06      0.0000     88.92 LINEAR  5.6835E-06   -205.25  3.0261E-04   -205.25
   70.50      3.00    -25.53     9.61     9.61      0.0000     89.00 LINEAR  5.6443E-06   -194.51  3.2264E-04   -194.51
   72.00      3.00    -25.81    10.00    10.00      0.0000     89.07 LINEAR  5.4655E-06   -184.72  3.3748E-04   -184.72
   73.50      3.00    -26.29    10.26    10.26      0.0000     89.15 LINEAR  5.1723E-06   -175.73  3.4750E-04   -175.73
   75.00      3.00    -26.95    10.40    10.40      0.0000     89.22 LINEAR  4.7918E-06   -167.45  3.5327E-04   -167.45
   76.50      3.00    -27.79    10.45    10.45      0.0000     89.30 LINEAR  4.3498E-06   -159.84  3.5554E-04   -159.84
   78.00      3.00    -28.81    10.44    10.44      0.0000     89.38 LINEAR  3.8692E-06   -152.88  3.5509E-04   -152.88
   79.50      3.00    -30.01    10.39    10.39      0.0000     89.45 LINEAR  3.3688E-06   -146.57  3.5274E-04   -146.57
   81.00      3.00    -31.43    10.30    10.30      0.0000     89.53 LINEAR  2.8630E-06   -140.93  3.4921E-04   -140.93
   82.50      3.00    -33.10    10.20    10.20      0.0000     89.61 LINEAR  2.3613E-06   -136.02  3.4518E-04   -136.02
   84.00      3.00    -35.13    10.10    10.10      0.0000     89.69 LINEAR  1.8691E-06   -131.89  3.4120E-04   -131.89
   85.50      3.00    -37.71    10.01    10.01      0.0000     89.76 LINEAR  1.3886E-06   -128.59  3.3770E-04   -128.59
   87.00      3.00    -41.30     9.94     9.94      0.0000     89.84 LINEAR  9.1880E-07   -126.18  3.3498E-04   -126.18
   88.50      3.00    -47.36     9.89     9.89      0.0000     89.92 LINEAR  4.5722E-07   -124.72  3.3328E-04   -124.72
    0.00      6.00    -22.84    -3.28    -3.23      0.0000     84.00 LINEAR  7.6905E-06   -195.41  7.3170E-05   -195.41
    1.50      6.00    -19.80    -0.23    -0.18      0.0000     84.00 LINEAR  1.0918E-05   -176.53  1.0391E-04   -176.53
    3.00      6.00    -18.32     1.26     1.30      0.0000     84.01 LINEAR  1.2942E-05   -156.61  1.2330E-04   -156.61
    4.50      6.00    -17.98     1.61     1.66      0.0000     84.02 LINEAR  1.3457E-05   -136.40  1.2843E-04   -136.40
    6.00      6.00    -18.73     0.88     0.93      0.0000     84.03 LINEAR  1.2344E-05   -116.22  1.1810E-04   -116.22
    7.50      6.00    -20.84    -1.19    -1.15      0.0000     84.05 LINEAR  9.6915E-06    -96.40  9.3004E-05    -96.40
    9.00      6.00    -25.31    -5.64    -5.59      0.0000     84.07 LINEAR  5.7880E-06    -78.03  5.5755E-05    -78.03
   10.50      6.00    -39.18   -19.47   -19.42      0.0000     84.10 LINEAR  1.1725E-06    -79.52  1.1345E-05    -79.52
   12.00      6.00    -28.60    -8.84    -8.79      0.0000     84.13 LINEAR  3.9646E-06   -203.95  3.8563E-05   -203.95
   13.50      6.00    -21.91    -2.10    -2.05      0.0000     84.16 LINEAR  8.5655E-06   -187.78  8.3811E-05   -187.78
   15.00      6.00    -18.78     1.08     1.13      0.0000     84.20 LINEAR  1.2273E-05   -168.59  1.2089E-04   -168.59
   16.50      6.00    -17.26     2.67     2.72      0.0000     84.25 LINEAR  1.4627E-05   -148.81  1.4514E-04   -148.81
   18.00      6.00    -16.85     3.16     3.20      0.0000     84.29 LINEAR  1.5339E-05   -128.82  1.5345E-04   -128.82
   19.50      6.00    -17.44     2.64     2.68      0.0000     84.34 LINEAR  1.4321E-05   -108.66  1.4455E-04   -108.66
   21.00      6.00    -19.21     0.96     1.00      0.0000     84.40 LINEAR  1.1691E-05    -88.15  1.1915E-04    -88.15
   22.50      6.00    -22.77    -2.52    -2.48      0.0000     84.45 LINEAR  7.7554E-06    -66.50  7.9867E-05    -66.50
   24.00      6.00    -31.01   -10.66   -10.62      0.0000     84.52 LINEAR  3.0041E-06    -37.36  3.1287E-05    -37.36
   25.50      6.00    -32.92   -12.46   -12.43      0.0000     84.58 LINEAR  2.4101E-06   -233.42  2.5405E-05   -233.42
   27.00      6.00    -23.34    -2.77    -2.73      0.0000     84.65 LINEAR  7.2657E-06   -200.93  7.7585E-05   -200.93
   28.50      6.00    -19.36     1.33     1.36      0.0000     84.72 LINEAR  1.1482E-05   -179.43  1.2431E-04   -179.43
   30.00      6.00    -17.29     3.53     3.56      0.0000     84.80 LINEAR  1.4580E-05   -159.47  1.6018E-04   -159.47
   31.50      6.00    -16.33     4.62     4.66      0.0000     84.88 LINEAR  1.6280E-05   -139.96  1.8167E-04   -139.96
   33.00      6.00    -16.23     4.86     4.90      0.0000     84.96 LINEAR  1.6466E-05   -120.48  1.8680E-04   -120.48
   34.50      6.00    -16.94     4.31     4.34      0.0000     85.05 LINEAR  1.5183E-05   -100.65  1.7529E-04   -100.65
   36.00      6.00    -18.53     2.88     2.91      0.0000     85.14 LINEAR  1.2634E-05    -79.71  1.4858E-04    -79.71
   37.50      6.00    -21.31     0.26     0.30      0.0000     85.23 LINEAR  9.1728E-06    -55.66  1.1001E-04    -55.66
   39.00      6.00    -25.87    -4.11    -4.09      0.0000     85.33 LINEAR  5.4273E-06    -20.79  6.6444E-05    -20.79
   40.50      6.00    -29.73    -7.78    -7.75      0.0000     85.43 LINEAR  3.4820E-06     53.24  4.3568E-05     53.24
   42.00      6.00    -25.06    -2.92    -2.89      0.0000     85.53 LINEAR  5.9558E-06   -241.88  7.6251E-05   -241.88
   43.50      6.00    -21.02     1.34     1.37      0.0000     85.64 LINEAR  9.4924E-06   -211.03  1.2451E-04   -211.03
   45.00      6.00    -18.57     4.01     4.04      0.0000     85.75 LINEAR  1.2586E-05   -189.00  1.6934E-04   -189.00
   46.50      6.00    -17.12     5.69     5.71      0.0000     85.86 LINEAR  1.4859E-05   -169.92  2.0539E-04   -169.92
   48.00      6.00    -16.39     6.67     6.69      0.0000     85.98 LINEAR  1.6177E-05   -152.09  2.3002E-04   -152.09
   49.50      6.00    -16.20     7.12     7.14      0.0000     86.10 LINEAR  1.6524E-05   -134.79  2.4208E-04   -134.79
   51.00      6.00    -16.49     7.10     7.12      0.0000     86.22 LINEAR  1.5979E-05   -117.56  2.4158E-04   -117.56
   52.50      6.00    -17.22     6.66     6.67      0.0000     86.34 LINEAR  1.4692E-05    -99.89  2.2963E-04    -99.89
   54.00      6.00    -18.37     5.82     5.83      0.0000     86.46 LINEAR  1.2876E-05    -81.15  2.0841E-04    -81.15
   55.50      6.00    -19.90     4.61     4.62      0.0000     86.59 LINEAR  1.0796E-05    -60.28  1.8134E-04    -60.28
   57.00      6.00    -21.68     3.16     3.18      0.0000     86.72 LINEAR  8.7896E-06    -35.66  1.5355E-04    -35.66
   58.50      6.00    -23.31     1.89     1.90      0.0000     86.86 LINEAR  7.2851E-06     -5.60  1.3266E-04     -5.60
   60.00      6.00    -24.03     1.55     1.57      0.0000     86.99 LINEAR  6.7056E-06     28.73  1.2760E-04     28.73
   61.50      6.00    -23.53     2.46     2.47      0.0000     87.13 LINEAR  7.1045E-06     61.12  1.4166E-04     61.12
   63.00      6.00    -22.43     3.99     4.00      0.0000     87.27 LINEAR  8.0641E-06     87.21  1.6900E-04     87.21
   64.50      6.00    -21.35     5.54     5.54      0.0000     87.41 LINEAR  9.1315E-06   -252.43  2.0181E-04   -252.43
   66.00      6.00    -20.53     6.85     6.86      0.0000     87.55 LINEAR  1.0040E-05   -235.96  2.3485E-04   -235.96
   67.50      6.00    -20.00     7.91     7.92      0.0000     87.70 LINEAR  1.0668E-05   -222.05  2.6523E-04   -222.05
   69.00      6.00    -19.75     8.73     8.73      0.0000     87.84 LINEAR  1.0977E-05   -209.91  2.9144E-04   -209.91
   70.50      6.00    -19.76     9.34     9.35      0.0000     87.99 LINEAR  1.0975E-05   -199.08  3.1282E-04   -199.08
   72.00      6.00    -19.98     9.79     9.79      0.0000     88.14 LINEAR  1.0693E-05   -189.26  3.2924E-04   -189.26
   73.50      6.00    -20.41    10.09    10.09      0.0000     88.29 LINEAR  1.0178E-05   -180.30  3.4096E-04   -180.30
   75.00      6.00    -21.03    10.28    10.28      0.0000     88.44 LINEAR  9.4798E-06   -172.10  3.4848E-04   -172.10
   76.50      6.00    -21.83    10.38    10.38      0.0000     88.59 LINEAR  8.6481E-06   -164.59  3.5246E-04   -164.59
   78.00      6.00    -22.80    10.41    10.41      0.0000     88.75 LINEAR  7.7276E-06   -157.75  3.5363E-04   -157.75
   79.50      6.00    -23.97    10.39    10.39      0.0000     88.90 LINEAR  6.7560E-06   -151.59  3.5273E-04   -151.59
   81.00      6.00    -25.35    10.33    10.33      0.0000     89.06 LINEAR  5.7624E-06   -146.11  3.5047E-04   -146.11
   82.50      6.00    -27.00    10.26    10.26      0.0000     89.21 LINEAR  4.7673E-06   -141.35  3.4750E-04   -141.35
   84.00      6.00    -29.01    10.18    10.18      0.0000     89.37 LINEAR  3.7833E-06   -137.37  3.4436E-04   -137.37
   85.50      6.00    -31.57    10.10    10.10      0.0000     89.53 LINEAR  2.8161E-06   -134.20  3.4149E-04   -134.20
   87.00      6.00    -35.15    10.05    10.05      0.0000     89.68 LINEAR  1.8660E-06   -131.89  3.3922E-04   -131.89
   88.50      6.00    -41.20    10.01    10.01      0.0000     89.84 LINEAR  9.2931E-07   -130.49  3.3777E-04   -130.49
    0.00      9.00    -19.34    -3.34    -3.23      0.0000     81.00 LINEAR  1.1509E-05   -195.41  7.2668E-05   -195.41
    1.50      9.00    -16.31    -0.30    -0.20      0.0000     81.00 LINEAR  1.6312E-05   -176.66  1.0303E-04   -176.66
    3.00      9.00    -14.83     1.18     1.29      0.0000     81.01 LINEAR  1.9341E-05   -156.88  1.2228E-04   -156.88
    4.50      9.00    -14.48     1.55     1.66      0.0000     81.03 LINEAR  2.0147E-05   -136.82  1.2759E-04   -136.82
    6.00      9.00    -15.20     0.86     0.96      0.0000     81.05 LINEAR  1.8550E-05   -116.77  1.1777E-04   -116.77
    7.50      9.00    -17.23    -1.15    -1.05      0.0000     81.08 LINEAR  1.4673E-05    -97.07  9.3443E-05    -97.07
    9.00      9.00    -21.54    -5.43    -5.33      0.0000     81.11 LINEAR  8.9316E-06    -78.72  5.7095E-05    -78.72
   10.50      9.00    -34.20   -18.05   -17.95      0.0000     81.15 LINEAR  2.0797E-06    -75.97  1.3355E-05    -75.97
   12.00      9.00    -25.72    -9.52    -9.41      0.0000     81.19 LINEAR  5.5257E-06   -204.52  3.5668E-05   -204.52
   13.50      9.00    -18.69    -2.44    -2.34      0.0000     81.24 LINEAR  1.2409E-05   -188.95  8.0576E-05   -188.95
   15.00      9.00    -15.45     0.86     0.96      0.0000     81.30 LINEAR  1.8025E-05   -169.97  1.1782E-04   -169.97
   16.50      9.00    -13.84     2.53     2.63      0.0000     81.36 LINEAR  2.1683E-05   -150.36  1.4278E-04   -150.36
   18.00      9.00    -13.35     3.09     3.19      0.0000     81.43 LINEAR  2.2943E-05   -130.53  1.5231E-04   -130.53
   19.50      9.00    -13.85     2.67     2.76      0.0000     81.51 LINEAR  2.1655E-05   -110.54  1.4504E-04   -110.54
   21.00      9.00    -15.47     1.13     1.22      0.0000     81.59 LINEAR  1.7966E-05    -90.24  1.2150E-04    -90.24
   22.50      9.00    -18.76    -2.07    -1.98      0.0000     81.68 LINEAR  1.2301E-05    -68.97  8.4066E-05    -68.97
   24.00      9.00    -26.01    -9.22    -9.13      0.0000     81.77 LINEAR  5.3425E-06    -42.18  3.6923E-05    -42.18
   25.50      9.00    -31.90   -15.00   -14.91      0.0000     81.86 LINEAR  2.7127E-06   -242.72  1.8976E-05   -242.72
   27.00      9.00    -20.64    -3.63    -3.54      0.0000     81.97 LINEAR  9.9141E-06   -204.10  7.0252E-05   -204.10
   28.50      9.00    -16.30     0.82     0.91      0.0000     82.08 LINEAR  1.6332E-05   -182.36  1.1733E-04   -182.36
   30.00      9.00    -14.04     3.21     3.29      0.0000     82.19 LINEAR  2.1182E-05   -162.45  1.5443E-04   -162.45
   31.50      9.00    -12.95     4.44     4.52      0.0000     82.31 LINEAR  2.4027E-05   -143.08  1.7792E-04   -143.08
   33.00      9.00    -12.72     4.81     4.89      0.0000     82.43 LINEAR  2.4662E-05   -123.81  1.8566E-04   -123.81
   34.50      9.00    -13.28     4.40     4.48      0.0000     82.56 LINEAR  2.3123E-05   -104.28  1.7715E-04   -104.28
   36.00      9.00    -14.69     3.16     3.23      0.0000     82.70 LINEAR  1.9667E-05    -83.84  1.5349E-04    -83.84
   37.50      9.00    -17.18     0.84     0.91      0.0000     82.84 LINEAR  1.4767E-05    -60.95  1.1752E-04    -60.95
   39.00      9.00    -21.28    -3.08    -3.02      0.0000     82.98 LINEAR  9.2095E-06    -30.06  7.4821E-05    -30.06
   40.50      9.00    -26.19    -7.80    -7.74      0.0000     83.13 LINEAR  5.2324E-06     32.62  4.3445E-05     32.62
   42.00      9.00    -22.86    -4.28    -4.22      0.0000     83.29 LINEAR  7.6734E-06   -252.44  6.5193E-05   -252.44
   43.50      9.00    -18.40     0.39     0.45      0.0000     83.45 LINEAR  1.2824E-05   -217.43  1.1162E-04   -217.43
   45.00      9.00    -15.66     3.36     3.41      0.0000     83.61 LINEAR  1.7586E-05   -194.37  1.5703E-04   -194.37
   46.50      9.00    -14.02     5.23     5.28      0.0000     83.78 LINEAR  2.1247E-05   -175.01  1.9488E-04   -175.01
   48.00      9.00    -13.12     6.37     6.42      0.0000     83.95 LINEAR  2.3554E-05   -157.19  2.2225E-04   -157.19
   49.50      9.00    -12.80     6.96     7.00      0.0000     84.13 LINEAR  2.4450E-05   -140.07  2.3770E-04   -140.07
   51.00      9.00    -12.95     7.08     7.12      0.0000     84.31 LINEAR  2.4018E-05   -123.14  2.4096E-04   -123.14
   52.50      9.00    -13.54     6.78     6.82      0.0000     84.49 LINEAR  2.2447E-05   -105.99  2.3281E-04   -105.99
   54.00      9.00    -14.54     6.08     6.12      0.0000     84.68 LINEAR  2.0015E-05    -88.06  2.1499E-04    -88.06
   55.50      9.00    -15.92     5.03     5.06      0.0000     84.87 LINEAR  1.7072E-05    -68.53  1.9030E-04    -68.53
   57.00      9.00    -17.61     3.67     3.71      0.0000     85.07 LINEAR  1.4050E-05    -46.10  1.6287E-04    -46.10
   58.50      9.00    -19.36     2.29     2.32      0.0000     85.27 LINEAR  1.1488E-05    -19.06  1.3882E-04    -19.06
   60.00      9.00    -20.56     1.47     1.49      0.0000     85.47 LINEAR  1.0005E-05     13.10  1.2633E-04     13.10
   61.50      9.00    -20.61     1.82     1.85      0.0000     85.68 LINEAR  9.9466E-06     46.32  1.3161E-04     46.32
   63.00      9.00    -19.76     3.11     3.13      0.0000     85.89 LINEAR  1.0975E-05     74.78  1.5263E-04     74.78
   64.50      9.00    -18.68     4.64     4.66      0.0000     86.10 LINEAR  1.2417E-05     97.13  1.8211E-04     97.13
   66.00      9.00    -17.78     6.04     6.06      0.0000     86.31 LINEAR  1.3784E-05   -245.13  2.1396E-04   -245.13
   67.50      9.00    -17.14     7.20     7.22      0.0000     86.53 LINEAR  1.4823E-05   -230.45  2.4456E-04   -230.45
   69.00      9.00    -16.79     8.13     8.14      0.0000     86.75 LINEAR  1.5435E-05   -217.87  2.7194E-04   -217.87
   70.50      9.00    -16.70     8.84     8.85      0.0000     86.97 LINEAR  1.5605E-05   -206.79  2.9516E-04   -206.79
   72.00      9.00    -16.83     9.37     9.38      0.0000     87.20 LINEAR  1.5362E-05   -196.88  3.1387E-04   -196.88
   73.50      9.00    -17.18     9.76     9.77      0.0000     87.42 LINEAR  1.4762E-05   -187.91  3.2815E-04   -187.91
   75.00      9.00    -17.72    10.02    10.03      0.0000     87.65 LINEAR  1.3870E-05   -179.77  3.3836E-04   -179.77
   76.50      9.00    -18.45    10.19    10.20      0.0000     87.88 LINEAR  1.2756E-05   -172.38  3.4501E-04   -172.38
   78.00      9.00    -19.36    10.29    10.29      0.0000     88.11 LINEAR  1.1483E-05   -165.71  3.4872E-04   -165.71
   79.50      9.00    -20.47    10.32    10.33      0.0000     88.35 LINEAR  1.0107E-05   -159.73  3.5017E-04   -159.73
   81.00      9.00    -21.80    10.32    10.32      0.0000     88.58 LINEAR  8.6717E-06   -154.45  3.4999E-04   -154.45
   82.50      9.00    -23.40    10.29    10.29      0.0000     88.82 LINEAR  7.2107E-06   -149.91  3.4879E-04   -149.91
   84.00      9.00    -25.38    10.25    10.25      0.0000     89.05 LINEAR  5.7464E-06   -146.12  3.4710E-04   -146.12
   85.50      9.00    -27.91    10.20    10.20      0.0000     89.29 LINEAR  4.2914E-06   -143.12  3.4534E-04   -143.12
   87.00      9.00    -31.47    10.16    10.16      0.0000     89.53 LINEAR  2.8502E-06   -140.95  3.4385E-04   -140.95
   88.50      9.00    -37.51    10.14    10.14      0.0000     89.76 LINEAR  1.4215E-06   -139.64  3.4286E-04   -139.64
    0.00     12.00    -16.87    -3.42    -3.23      0.0000     78.00 LINEAR  1.5297E-05   -195.41  7.1966E-05   -195.41
    1.50     12.00    -13.86    -0.41    -0.22      0.0000     78.00 LINEAR  2.1628E-05   -176.85  1.0179E-04   -176.85
    3.00     12.00    -12.38     1.08     1.27      0.0000     78.02 LINEAR  2.5653E-05   -157.27  1.2086E-04   -157.27
    4.50     12.00    -12.00     1.47     1.66      0.0000     78.04 LINEAR  2.6788E-05   -137.40  1.2642E-04   -137.40
    6.00     12.00    -12.68     0.82     1.01      0.0000     78.06 LINEAR  2.4792E-05   -117.54  1.1728E-04   -117.54
    7.50     12.00    -14.63    -1.10    -0.91      0.0000     78.10 LINEAR  1.9810E-05    -98.01  9.4005E-05    -98.01
    9.00     12.00    -18.72    -5.16    -4.97      0.0000     78.14 LINEAR  1.2366E-05    -79.70  5.8901E-05    -79.70
   10.50     12.00    -29.97   -16.38   -16.19      0.0000     78.20 LINEAR  3.3846E-06    -73.00  1.6195E-05    -73.00
   12.00     12.00    -24.19   -10.55   -10.36      0.0000     78.25 LINEAR  6.5871E-06   -205.15  3.1682E-05   -205.15
   13.50     12.00    -16.63    -2.94    -2.76      0.0000     78.32 LINEAR  1.5723E-05   -190.56  7.6072E-05   -190.56
   15.00     12.00    -13.22     0.54     0.71      0.0000     78.40 LINEAR  2.3300E-05   -171.89  1.1348E-04   -171.89
   16.50     12.00    -11.50     2.32     2.50      0.0000     78.48 LINEAR  2.8401E-05   -152.52  1.3935E-04   -152.52
   18.00     12.00    -10.90     2.99     3.16      0.0000     78.57 LINEAR  3.0427E-05   -132.92  1.5052E-04   -132.92
   19.50     12.00    -11.27     2.69     2.86      0.0000     78.67 LINEAR  2.9144E-05   -113.16  1.4546E-04   -113.16
   21.00     12.00    -12.71     1.34     1.51      0.0000     78.78 LINEAR  2.4699E-05    -93.15  1.2447E-04    -93.15
   22.50     12.00    -15.66    -1.52    -1.35      0.0000     78.89 LINEAR  1.7596E-05    -72.35  8.9605E-05    -72.35
   24.00     12.00    -21.81    -7.58    -7.42      0.0000     79.01 LINEAR  8.6601E-06    -47.75  4.4598E-05    -47.75
   25.50     12.00    -33.90   -19.56   -19.40      0.0000     79.14 LINEAR  2.1538E-06     92.09  1.1226E-05     92.09
   27.00     12.00    -19.44    -4.99    -4.84      0.0000     79.28 LINEAR  1.1375E-05   -208.78  6.0063E-05   -208.78
   28.50     12.00    -14.51     0.06     0.21      0.0000     79.42 LINEAR  2.0068E-05   -186.49  1.0743E-04   -186.49
   30.00     12.00    -11.98     2.72     2.87      0.0000     79.57 LINEAR  2.6877E-05   -166.63  1.4601E-04   -166.63
   31.50     12.00    -10.68     4.15     4.29      0.0000     79.73 LINEAR  3.1184E-05   -147.44  1.7207E-04   -147.44
   33.00     12.00    -10.28     4.70     4.83      0.0000     79.89 LINEAR  3.2673E-05   -128.43  1.8328E-04   -128.43
   34.50     12.00    -10.65     4.48     4.62      0.0000     80.06 LINEAR  3.1324E-05   -109.27  1.7882E-04   -109.27
   36.00     12.00    -11.81     3.48     3.61      0.0000     80.24 LINEAR  2.7406E-05    -89.45  1.5937E-04    -89.45
   37.50     12.00    -13.93     1.53     1.65      0.0000     80.43 LINEAR  2.1454E-05    -67.83  1.2722E-04    -67.83
   39.00     12.00    -17.45    -1.81    -1.69      0.0000     80.62 LINEAR  1.4318E-05    -40.86  8.6677E-05    -40.86
   40.50     12.00    -22.62    -6.79    -6.68      0.0000     80.82 LINEAR  7.8915E-06      6.95  4.8825E-05      6.95
   42.00     12.00    -22.26    -6.23    -6.12      0.0000     81.02 LINEAR  8.2285E-06     88.68  5.2092E-05     88.68
   43.50     12.00    -17.35    -1.11    -1.01      0.0000     81.23 LINEAR  1.4481E-05   -227.41  9.3918E-05   -227.41
   45.00     12.00    -14.14     2.32     2.42      0.0000     81.45 LINEAR  2.0951E-05   -202.22  1.3940E-04   -202.22
   46.50     12.00    -12.19     4.51     4.60      0.0000     81.68 LINEAR  2.6228E-05   -182.26  1.7926E-04   -182.26
   48.00     12.00    -11.06     5.88     5.97      0.0000     81.91 LINEAR  2.9865E-05   -164.35  2.0998E-04   -164.35
   49.50     12.00    -10.54     6.66     6.75      0.0000     82.14 LINEAR  3.1721E-05   -147.38  2.2979E-04   -147.38
   51.00     12.00    -10.50     6.97     7.05      0.0000     82.38 LINEAR  3.1844E-05   -130.81  2.3806E-04   -130.81
   52.50     12.00    -10.90     6.86     6.93      0.0000     82.63 LINEAR  3.0424E-05   -114.24  2.3512E-04   -114.24
   54.00     12.00    -11.69     6.37     6.44      0.0000     82.88 LINEAR  2.7765E-05    -97.22  2.2223E-04    -97.22
   55.50     12.00    -12.87     5.52     5.58      0.0000     83.14 LINEAR  2.4260E-05    -79.17  2.0150E-04    -79.17
   57.00     12.00    -14.38     4.35     4.41      0.0000     83.40 LINEAR  2.0381E-05    -59.15  1.7605E-04    -59.15
   58.50     12.00    -16.11     2.98     3.03      0.0000     83.66 LINEAR  1.6697E-05    -35.77  1.5034E-04    -35.77
   60.00     12.00    -17.71     1.76     1.81      0.0000     83.93 LINEAR  1.3893E-05     -7.63  1.3072E-04     -7.63
   61.50     12.00    -18.54     1.34     1.38      0.0000     84.21 LINEAR  1.2622E-05     24.35  1.2445E-04     24.35
   63.00     12.00    -18.29     2.02     2.06      0.0000     84.49 LINEAR  1.2997E-05     55.21  1.3468E-04     55.21
   64.50     12.00    -17.40     3.37     3.41      0.0000     84.77 LINEAR  1.4395E-05     80.72  1.5730E-04     80.72
   66.00     12.00    -16.45     4.82     4.85      0.0000     85.06 LINEAR  1.6063E-05   -259.19  1.8580E-04   -259.19
   67.50     12.00    -15.69     6.10     6.13      0.0000     85.35 LINEAR  1.7523E-05   -243.03  2.1542E-04   -243.03
   69.00     12.00    -15.20     7.16     7.19      0.0000     85.64 LINEAR  1.8542E-05   -229.55  2.4342E-04   -229.55
   70.50     12.00    -14.97     8.01     8.03      0.0000     85.94 LINEAR  1.9040E-05   -217.94  2.6834E-04   -217.94
   72.00     12.00    -14.98     8.67     8.69      0.0000     86.24 LINEAR  1.9016E-05   -207.73  2.8951E-04   -207.73
   73.50     12.00    -15.21     9.17     9.19      0.0000     86.55 LINEAR  1.8517E-05   -198.64  3.0673E-04   -198.64
   75.00     12.00    -15.65     9.54     9.56      0.0000     86.85 LINEAR  1.7612E-05   -190.48  3.2013E-04   -190.48
   76.50     12.00    -16.28     9.81     9.82      0.0000     87.16 LINEAR  1.6378E-05   -183.16  3.3007E-04   -183.16
   78.00     12.00    -17.10     9.99    10.00      0.0000     87.47 LINEAR  1.4893E-05   -176.61  3.3701E-04   -176.61
   79.50     12.00    -18.13    10.10    10.11      0.0000     87.78 LINEAR  1.3228E-05   -170.80  3.4149E-04   -170.80
   81.00     12.00    -19.39    10.17    10.17      0.0000     88.10 LINEAR  1.1440E-05   -165.72  3.4406E-04   -165.72
   82.50     12.00    -20.94    10.20    10.20      0.0000     88.41 LINEAR  9.5788E-06   -161.38  3.4525E-04   -161.38
   84.00     12.00    -22.86    10.21    10.21      0.0000     88.73 LINEAR  7.6774E-06   -157.78  3.4555E-04   -157.78
   85.50     12.00    -25.36    10.20    10.20      0.0000     89.04 LINEAR  5.7593E-06   -154.95  3.4534E-04   -154.95
   87.00     12.00    -28.88    10.19    10.19      0.0000     89.36 LINEAR  3.8375E-06   -152.91  3.4496E-04   -152.91
   88.50     12.00    -34.91    10.18    10.18      0.0000     89.68 LINEAR  1.9176E-06   -151.68  3.4464E-04   -151.68
    0.00     15.00    -14.97    -3.53    -3.23      0.0000     75.00 LINEAR  1.9042E-05   -195.41  7.1066E-05   -195.41
    1.50     15.00    -11.99    -0.55    -0.24      0.0000     75.00 LINEAR  2.6840E-05   -177.09  1.0020E-04   -177.09
    3.00     15.00    -10.50     0.95     1.25      0.0000     75.02 LINEAR  3.1849E-05   -157.77  1.1903E-04   -157.77
    4.50     15.00    -10.10     1.37     1.67      0.0000     75.04 LINEAR  3.3360E-05   -138.15  1.2489E-04   -138.15
    6.00     15.00    -10.72     0.77     1.07      0.0000     75.08 LINEAR  3.1073E-05   -118.53  1.1660E-04   -118.53
    7.50     15.00    -12.56    -1.04    -0.75      0.0000     75.12 LINEAR  2.5142E-05    -99.22  9.4642E-05    -99.22
    9.00     15.00    -16.39    -4.84    -4.55      0.0000     75.18 LINEAR  1.6172E-05    -80.99  6.1107E-05    -80.99
   10.50     15.00    -26.21   -14.62   -14.33      0.0000     75.24 LINEAR  5.2197E-06    -71.13  1.9812E-05    -71.13
   12.00     15.00    -23.67   -12.04   -11.75      0.0000     75.31 LINEAR  6.9939E-06   -205.57  2.6685E-05   -205.57
   13.50     15.00    -15.30    -3.62    -3.34      0.0000     75.40 LINEAR  1.8325E-05   -192.59  7.0332E-05   -192.59
   15.00     15.00    -11.65     0.09     0.38      0.0000     75.49 LINEAR  2.7916E-05   -174.34  1.0786E-04   -174.34
   16.50     15.00     -9.78     2.03     2.31      0.0000     75.59 LINEAR  3.4625E-05   -155.28  1.3477E-04   -155.28
   18.00     15.00     -9.04     2.83     3.11      0.0000     75.70 LINEAR  3.7686E-05   -135.97  1.4788E-04   -135.97
   19.50     15.00     -9.26     2.70     2.96      0.0000     75.82 LINEAR  3.6758E-05   -116.51  1.4553E-04   -116.51
   21.00     15.00    -10.47     1.56     1.83      0.0000     75.96 LINEAR  3.1950E-05    -96.84  1.2772E-04    -96.84
   22.50     15.00    -13.03    -0.91    -0.65      0.0000     76.10 LINEAR  2.3799E-05    -76.58  9.6137E-05    -76.58
   24.00     15.00    -18.14    -5.91    -5.66      0.0000     76.25 LINEAR  1.3219E-05    -53.82  5.4004E-05    -53.82
   25.50     15.00    -33.46   -21.13   -20.89      0.0000     76.40 LINEAR  2.2649E-06     18.26  9.3649E-06     18.26
   27.00     15.00    -19.53    -7.09    -6.85      0.0000     76.57 LINEAR  1.1260E-05   -215.44  4.7165E-05   -215.44
   28.50     15.00    -13.61    -1.05    -0.82      0.0000     76.75 LINEAR  2.2262E-05   -191.88  9.4538E-05   -191.88
   30.00     15.00    -10.67     2.02     2.25      0.0000     76.94 LINEAR  3.1242E-05   -172.00  1.3464E-04   -172.00
   31.50     15.00     -9.11     3.71     3.93      0.0000     77.13 LINEAR  3.7380E-05   -153.01  1.6361E-04   -153.01
   33.00     15.00     -8.48     4.49     4.70      0.0000     77.33 LINEAR  4.0209E-05   -134.32  1.7893E-04   -134.32
   34.50     15.00     -8.61     4.51     4.72      0.0000     77.55 LINEAR  3.9617E-05   -115.59  1.7940E-04   -115.59
   36.00     15.00     -9.48     3.80     4.00      0.0000     77.77 LINEAR  3.5826E-05    -96.43  1.6527E-04    -96.43
   37.50     15.00    -11.20     2.24     2.44      0.0000     78.00 LINEAR  2.9372E-05    -76.06  1.3817E-04    -76.06
   39.00     15.00    -14.08    -0.45    -0.26      0.0000     78.24 LINEAR  2.1103E-05    -52.35  1.0134E-04    -52.35
   40.50     15.00    -18.62    -4.80    -4.63      0.0000     78.48 LINEAR  1.2508E-05    -17.20  6.1387E-05    -17.20
   42.00     15.00    -22.04    -8.02    -7.86      0.0000     78.74 LINEAR  8.4349E-06     55.37  4.2360E-05     55.37
   43.50     15.00    -17.59    -3.36    -3.20      0.0000     79.00 LINEAR  1.4084E-05   -243.11  7.2461E-05   -243.11
   45.00     15.00    -13.69     0.76     0.91      0.0000     79.27 LINEAR  2.2066E-05   -213.15  1.1646E-04   -213.15
   46.50     15.00    -11.28     3.41     3.55      0.0000     79.55 LINEAR  2.9128E-05   -191.88  1.5792E-04   -191.88
   48.00     15.00     -9.82     5.11     5.25      0.0000     79.84 LINEAR  3.4447E-05   -173.62  1.9213E-04   -173.62
   49.50     15.00     -9.03     6.16     6.29      0.0000     80.13 LINEAR  3.7733E-05   -156.72  2.1683E-04   -156.72
   51.00     15.00     -8.75     6.71     6.83      0.0000     80.43 LINEAR  3.8948E-05   -140.47  2.3097E-04   -140.47
   52.50     15.00     -8.91     6.84     6.95      0.0000     80.74 LINEAR  3.8241E-05   -124.47  2.3444E-04   -124.47
   54.00     15.00     -9.46     6.59     6.70      0.0000     81.05 LINEAR  3.5900E-05   -108.35  2.2794E-04   -108.35
   55.50     15.00    -10.38     6.00     6.10      0.0000     81.37 LINEAR  3.2316E-05    -91.70  2.1293E-04    -91.70
   57.00     15.00    -11.63     5.09     5.18      0.0000     81.70 LINEAR  2.7963E-05    -73.90  1.9161E-04    -73.90
   58.50     15.00    -13.18     3.89     3.98      0.0000     82.03 LINEAR  2.3389E-05    -54.03  1.6706E-04    -54.03
   60.00     15.00    -14.88     2.58     2.65      0.0000     82.37 LINEAR  1.9231E-05    -30.83  1.4354E-04    -30.83
   61.50     15.00    -16.37     1.50     1.57      0.0000     82.71 LINEAR  1.6210E-05     -3.31  1.2679E-04     -3.31
   63.00     15.00    -17.09     1.21     1.28      0.0000     83.06 LINEAR  1.4923E-05     27.14  1.2267E-04     27.14
   64.50     15.00    -16.85     1.91     1.97      0.0000     83.42 LINEAR  1.5339E-05     55.96  1.3297E-04     55.96
   66.00     15.00    -16.08     3.17     3.22      0.0000     83.78 LINEAR  1.6755E-05     79.82  1.5374E-04     79.82
   67.50     15.00    -15.26     4.52     4.56      0.0000     84.15 LINEAR  1.8407E-05     98.76  1.7951E-04     98.76
   69.00     15.00    -14.63     5.73     5.77      0.0000     84.52 LINEAR  1.9810E-05   -245.94  2.0630E-04   -245.94
   70.50     15.00    -14.23     6.74     6.77      0.0000     84.89 LINEAR  2.0732E-05   -233.20  2.3179E-04   -233.20
   72.00     15.00    -14.08     7.56     7.59      0.0000     85.27 LINEAR  2.1091E-05   -222.30  2.5472E-04   -222.30
   73.50     15.00    -14.16     8.21     8.23      0.0000     85.65 LINEAR  2.0892E-05   -212.81  2.7452E-04   -212.81
   75.00     15.00    -14.46     8.72     8.74      0.0000     86.03 LINEAR  2.0183E-05   -204.44  2.9102E-04   -204.44
   76.50     15.00    -14.97     9.10     9.12      0.0000     86.42 LINEAR  1.9036E-05   -197.04  3.0432E-04   -197.04
   78.00     15.00    -15.69     9.39     9.41      0.0000     86.81 LINEAR  1.7531E-05   -190.50  3.1468E-04   -190.50
   79.50     15.00    -16.62     9.61     9.62      0.0000     87.20 LINEAR  1.5747E-05   -184.77  3.2249E-04   -184.77
   81.00     15.00    -17.79     9.76     9.77      0.0000     87.60 LINEAR  1.3755E-05   -179.81  3.2815E-04   -179.81
   82.50     15.00    -19.26     9.86     9.87      0.0000     88.00 LINEAR  1.1615E-05   -175.60  3.3209E-04   -175.60
   84.00     15.00    -21.12     9.93     9.93      0.0000     88.40 LINEAR  9.3750E-06   -172.14  3.3472E-04   -172.14
   85.50     15.00    -23.57     9.97     9.98      0.0000     88.80 LINEAR  7.0717E-06   -169.45  3.3638E-04   -169.45
   87.00     15.00    -27.06    10.00    10.00      0.0000     89.20 LINEAR  4.7308E-06   -167.51  3.3735E-04   -167.51
   88.50     15.00    -33.07    10.01    10.01      0.0000     89.60 LINEAR  2.3697E-06   -166.34  3.3785E-04   -166.34
    0.00     18.00    -13.43    -3.66    -3.23      0.0000     72.00 LINEAR  2.2735E-05   -195.41  6.9972E-05   -195.41
    1.50     18.00    -10.48    -0.71    -0.28      0.0000     72.01 LINEAR  3.1925E-05   -177.38  9.8288E-05   -177.38
    3.00     18.00     -8.99     0.79     1.22      0.0000     72.02 LINEAR  3.7899E-05   -158.37  1.1680E-04   -158.37
    4.50     18.00     -8.56     1.23     1.67      0.0000     72.05 LINEAR  3.9841E-05   -139.06  1.2300E-04   -139.06
    6.00     18.00     -9.11     0.70     1.14      0.0000     72.09 LINEAR  3.7390E-05   -119.74  1.1571E-04   -119.74
    7.50     18.00    -10.82    -0.98    -0.55      0.0000     72.14 LINEAR  3.0697E-05   -100.69  9.5291E-05   -100.69
    9.00     18.00    -14.36    -4.49    -4.07      0.0000     72.21 LINEAR  2.0418E-05    -82.58  6.3625E-05    -82.58
   10.50     18.00    -22.83   -12.92   -12.50      0.0000     72.28 LINEAR  7.7027E-06    -70.42  2.4110E-05    -70.42
   12.00     18.00    -24.16   -14.21   -13.79      0.0000     72.37 LINEAR  6.6078E-06   -205.12  2.0791E-05   -205.12
   13.50     18.00    -14.53    -4.52    -4.11      0.0000     72.47 LINEAR  2.0034E-05   -195.00  6.3411E-05   -195.00
   15.00     18.00    -10.55    -0.48    -0.07      0.0000     72.58 LINEAR  3.1678E-05   -177.29  1.0093E-04   -177.29
   16.50     18.00     -8.49     1.64     2.05      0.0000     72.70 LINEAR  4.0165E-05   -158.62  1.2892E-04   -158.62
   18.00     18.00     -7.58     2.62     3.01      0.0000     72.83 LINEAR  4.4560E-05   -139.67  1.4420E-04   -139.67
   19.50     18.00     -7.62     2.66     3.05      0.0000     72.97 LINEAR  4.4393E-05   -120.57  1.4494E-04   -120.57
   21.00     18.00     -8.59     1.77     2.16      0.0000     73.13 LINEAR  3.9695E-05   -101.31  1.3086E-04   -101.31
   22.50     18.00    -10.74    -0.29     0.09      0.0000     73.29 LINEAR  3.0985E-05    -81.61  1.0322E-04    -81.61
   24.00     18.00    -14.89    -4.34    -3.98      0.0000     73.47 LINEAR  1.9206E-05    -60.32  6.4704E-05    -60.32
   25.50     18.00    -25.24   -14.58   -14.22      0.0000     73.66 LINEAR  5.8396E-06    -24.95  1.9912E-05    -24.95
   27.00     18.00    -21.26   -10.49   -10.14      0.0000     73.85 LINEAR  9.2338E-06   -225.70  3.1895E-05   -225.70
   28.50     18.00    -13.53    -2.65    -2.31      0.0000     74.06 LINEAR  2.2466E-05   -198.69  7.8678E-05   -198.69
   30.00     18.00     -9.99     1.03     1.36      0.0000     74.28 LINEAR  3.3787E-05   -178.59  1.2007E-04   -178.59
   31.50     18.00     -8.07     3.07     3.40      0.0000     74.52 LINEAR  4.2117E-05   -159.79  1.5202E-04   -159.79
   33.00     18.00     -7.16     4.14     4.45      0.0000     74.76 LINEAR  4.6814E-05   -141.43  1.7179E-04   -141.43
   34.50     18.00     -7.01     4.44     4.74      0.0000     75.01 LINEAR  4.7623E-05   -123.16  1.7785E-04   -123.16
   36.00     18.00     -7.56     4.04     4.33      0.0000     75.27 LINEAR  4.4670E-05   -104.67  1.6993E-04   -104.67
   37.50     18.00     -8.87     2.90     3.18      0.0000     75.55 LINEAR  3.8425E-05    -85.44  1.4906E-04    -85.44
   39.00     18.00    -11.11     0.84     1.11      0.0000     75.83 LINEAR  2.9681E-05    -64.25  1.1755E-04    -64.25
   40.50     18.00    -14.70    -2.55    -2.30      0.0000     76.12 LINEAR  1.9647E-05    -37.26  7.9521E-05    -37.26
   42.00     18.00    -19.68    -7.34    -7.09      0.0000     76.43 LINEAR  1.1068E-05     11.29  4.5839E-05     11.29
   43.50     18.00    -19.01    -6.46    -6.22      0.0000     76.74 LINEAR  1.1960E-05     89.22  5.0744E-05     89.22
   45.00     18.00    -14.36    -1.58    -1.36      0.0000     77.06 LINEAR  2.0437E-05   -228.80  8.8953E-05   -228.80
   46.50     18.00    -11.25     1.76     1.97      0.0000     77.39 LINEAR  2.9223E-05   -204.42  1.3066E-04   -204.42
   48.00     18.00     -9.32     3.93     4.13      0.0000     77.73 LINEAR  3.6479E-05   -185.24  1.6779E-04   -185.24
   49.50     18.00     -8.17     5.34     5.53      0.0000     78.08 LINEAR  4.1634E-05   -168.15  1.9730E-04   -168.15
   51.00     18.00     -7.59     6.19     6.37      0.0000     78.44 LINEAR  4.4507E-05   -152.11  2.1766E-04   -152.11
   52.50     18.00     -7.47     6.61     6.77      0.0000     78.81 LINEAR  4.5152E-05   -136.59  2.2827E-04   -136.59
   54.00     18.00     -7.74     6.64     6.80      0.0000     79.19 LINEAR  4.3793E-05   -121.25  2.2930E-04   -121.25
   55.50     18.00     -8.35     6.35     6.49      0.0000     79.57 LINEAR  4.0782E-05   -105.78  2.2160E-04   -105.78
   57.00     18.00     -9.30     5.74     5.87      0.0000     79.96 LINEAR  3.6562E-05    -89.81  2.0661E-04    -89.81
   58.50     18.00    -10.56     4.84     4.97      0.0000     80.36 LINEAR  3.1637E-05    -72.78  1.8635E-04    -72.78
   60.00     18.00    -12.08     3.71     3.82      0.0000     80.77 LINEAR  2.6570E-05    -53.93  1.6355E-04    -53.93
   61.50     18.00    -13.72     2.47     2.57      0.0000     81.19 LINEAR  2.1979E-05    -32.22  1.4177E-04    -32.22
   63.00     18.00    -15.21     1.42     1.51      0.0000     81.61 LINEAR  1.8531E-05     -6.84  1.2563E-04     -6.84
   64.50     18.00    -16.08     1.01     1.09      0.0000     82.04 LINEAR  1.6764E-05     21.26  1.1984E-04     21.26
   66.00     18.00    -16.11     1.47     1.54      0.0000     82.47 LINEAR  1.6694E-05     48.55  1.2632E-04     48.55
   67.50     18.00    -15.59     2.51     2.58      0.0000     82.91 LINEAR  1.7720E-05     71.84  1.4251E-04     71.84
   69.00     18.00    -14.94     3.73     3.79      0.0000     83.36 LINEAR  1.9098E-05     90.60  1.6401E-04     90.60
   70.50     18.00    -14.41     4.88     4.94      0.0000     83.81 LINEAR  2.0308E-05   -254.29  1.8724E-04   -254.29
   72.00     18.00    -14.09     5.88     5.92      0.0000     84.27 LINEAR  2.1081E-05   -241.83  2.0996E-04   -241.83
   73.50     18.00    -13.99     6.71     6.74      0.0000     84.73 LINEAR  2.1310E-05   -231.33  2.3092E-04   -231.33
   75.00     18.00    -14.13     7.38     7.41      0.0000     85.19 LINEAR  2.0981E-05   -222.32  2.4949E-04   -222.32
   76.50     18.00    -14.49     7.92     7.94      0.0000     85.66 LINEAR  2.0132E-05   -214.53  2.6542E-04   -214.53
   78.00     18.00    -15.07     8.34     8.36      0.0000     86.14 LINEAR  1.8829E-05   -207.77  2.7873E-04   -207.77
   79.50     18.00    -15.88     8.67     8.69      0.0000     86.61 LINEAR  1.7145E-05   -201.93  2.8955E-04   -201.93
   81.00     18.00    -16.95     8.92     8.94      0.0000     87.09 LINEAR  1.5154E-05   -196.93  2.9814E-04   -196.93
   82.50     18.00    -18.33     9.12     9.12      0.0000     87.57 LINEAR  1.2925E-05   -192.74  3.0477E-04   -192.74
   84.00     18.00    -20.12     9.26     9.26      0.0000     88.05 LINEAR  1.0519E-05   -189.33  3.0972E-04   -189.33
   85.50     18.00    -22.52     9.36     9.36      0.0000     88.54 LINEAR  7.9862E-06   -186.68  3.1327E-04   -186.68
   87.00     18.00    -25.97     9.42     9.42      0.0000     89.03 LINEAR  5.3674E-06   -184.79  3.1564E-04   -184.79
   88.50     18.00    -31.95     9.46     9.46      0.0000     89.51 LINEAR  2.6961E-06   -183.66  3.1699E-04   -183.66
    0.00     21.00    -12.14    -3.83    -3.23      0.0000     69.00 LINEAR  2.6366E-05   -195.41  6.8687E-05   -195.41
    1.50     21.00     -9.23    -0.91    -0.32      0.0000     69.01 LINEAR  3.6857E-05   -177.73  9.6048E-05   -177.73
    3.00     21.00     -7.74     0.59     1.18      0.0000     69.03 LINEAR  4.3772E-05   -159.08  1.1419E-04   -159.08
    4.50     21.00     -7.27     1.07     1.67      0.0000     69.06 LINEAR  4.6203E-05   -140.13  1.2074E-04   -140.13
    6.00     21.00     -7.75     0.62     1.21      0.0000     69.11 LINEAR  4.3732E-05   -121.16  1.1455E-04   -121.16
    7.50     21.00     -9.32    -0.93    -0.34      0.0000     69.16 LINEAR  3.6490E-05   -102.43  9.5880E-05   -102.43
    9.00     21.00    -12.55    -4.13    -3.54      0.0000     69.24 LINEAR  2.5157E-05    -84.49  6.6353E-05    -84.49
   10.50     21.00    -19.79   -11.33   -10.75      0.0000     69.32 LINEAR  1.0931E-05    -70.75  2.8962E-05    -70.75
   12.00     21.00    -26.03   -17.52   -16.94      0.0000     69.42 LINEAR  5.3324E-06   -201.78  1.4202E-05   -201.78
   13.50     21.00    -14.26    -5.70    -5.13      0.0000     69.53 LINEAR  2.0673E-05   -197.72  5.5386E-05   -197.72
   15.00     21.00     -9.84    -1.22    -0.66      0.0000     69.66 LINEAR  3.4376E-05   -180.74  9.2711E-05   -180.74
   16.50     21.00     -7.54     1.14     1.70      0.0000     69.79 LINEAR  4.4798E-05   -162.54  1.2171E-04   -162.54
   18.00     21.00     -6.44     2.31     2.86      0.0000     69.94 LINEAR  5.0835E-05   -144.00  1.3924E-04   -144.00
   19.50     21.00     -6.27     2.56     3.10      0.0000     70.11 LINEAR  5.1869E-05   -125.33  1.4334E-04   -125.33
   21.00     21.00     -6.97     1.94     2.47      0.0000     70.28 LINEAR  4.7815E-05   -106.52  1.3342E-04   -106.52
   22.50     21.00     -8.72     0.29     0.80      0.0000     70.47 LINEAR  3.9119E-05    -87.40  1.1031E-04    -87.40
   24.00     21.00    -12.03    -2.93    -2.43      0.0000     70.68 LINEAR  2.6698E-05    -67.30  7.6131E-05    -67.30
   25.50     21.00    -19.05    -9.84    -9.35      0.0000     70.89 LINEAR  1.1902E-05    -41.79  3.4354E-05    -41.79
   27.00     21.00    -26.18   -16.86   -16.38      0.0000     71.12 LINEAR  5.2377E-06   -248.95  1.5314E-05   -248.95
   28.50     21.00    -14.43    -5.00    -4.53      0.0000     71.36 LINEAR  2.0252E-05   -207.30  6.0032E-05   -207.30
   30.00     21.00     -9.94    -0.38     0.08      0.0000     71.61 LINEAR  3.3972E-05   -186.48  1.0219E-04   -186.48
   31.50     21.00     -7.54     2.16     2.60      0.0000     71.88 LINEAR  4.4787E-05   -167.78  1.3684E-04   -167.78
   33.00     21.00     -6.27     3.58     4.00      0.0000     72.15 LINEAR  5.1852E-05   -149.75  1.6106E-04   -149.75
[...]
   24.00    351.00    -26.01    -9.22    -9.13      0.0000    -81.77 LINEAR  5.3425E-06   -222.18  3.6923E-05    -42.18
   25.50    351.00    -31.90   -15.00   -14.91      0.0000    -81.86 LINEAR  2.7127E-06    -62.72  1.8976E-05   -242.72
   27.00    351.00    -20.64    -3.63    -3.54      0.0000    -81.97 LINEAR  9.9141E-06    -24.10  7.0252E-05   -204.10
   28.50    351.00    -16.30     0.82     0.91      0.0000    -82.08 LINEAR  1.6332E-05     -2.36  1.1733E-04   -182.36
   30.00    351.00    -14.04     3.21     3.29      0.0000    -82.19 LINEAR  2.1182E-05     17.55  1.5443E-04   -162.45
   31.50    351.00    -12.95     4.44     4.52      0.0000    -82.31 LINEAR  2.4027E-05     36.92  1.7792E-04   -143.08
   33.00    351.00    -12.72     4.81     4.89      0.0000    -82.43 LINEAR  2.4662E-05     56.19  1.8566E-04   -123.81
   34.50    351.00    -13.28     4.40     4.48      0.0000    -82.56 LINEAR  2.3123E-05     75.72  1.7715E-04   -104.28
   36.00    351.00    -14.69     3.16     3.23      0.0000    -82.70 LINEAR  1.9667E-05     96.16  1.5349E-04    -83.84
   37.50    351.00    -17.18     0.84     0.91      0.0000    -82.84 LINEAR  1.4767E-05   -240.95  1.1752E-04    -60.95
   39.00    351.00    -21.28    -3.08    -3.02      0.0000    -82.98 LINEAR  9.2095E-06   -210.06  7.4821E-05    -30.06
   40.50    351.00    -26.19    -7.80    -7.74      0.0000    -83.13 LINEAR  5.2324E-06   -147.38  4.3445E-05     32.62
   42.00    351.00    -22.86    -4.28    -4.22      0.0000    -83.29 LINEAR  7.6734E-06    -72.44  6.5193E-05   -252.44
   43.50    351.00    -18.40     0.39     0.45      0.0000    -83.45 LINEAR  1.2824E-05    -37.43  1.1162E-04   -217.43
   45.00    351.00    -15.66     3.36     3.41      0.0000    -83.61 LINEAR  1.7586E-05    -14.37  1.5703E-04   -194.37
   46.50    351.00    -14.02     5.23     5.28      0.0000    -83.78 LINEAR  2.1247E-05      4.99  1.9488E-04   -175.01
   48.00    351.00    -13.12     6.37     6.42      0.0000    -83.95 LINEAR  2.3554E-05     22.81  2.2225E-04   -157.19
   49.50    351.00    -12.80     6.96     7.00      0.0000    -84.13 LINEAR  2.4450E-05     39.93  2.3770E-04   -140.07
   51.00    351.00    -12.95     7.08     7.12      0.0000    -84.31 LINEAR  2.4018E-05     56.86  2.4096E-04   -123.14
   52.50    351.00    -13.54     6.78     6.82      0.0000    -84.49 LINEAR  2.2447E-05     74.01  2.3281E-04   -105.99
   54.00    351.00    -14.54     6.08     6.12      0.0000    -84.68 LINEAR  2.0015E-05     91.94  2.1499E-04    -88.06
   55.50    351.00    -15.92     5.03     5.06      0.0000    -84.87 LINEAR  1.7072E-05   -248.53  1.9030E-04    -68.53
   57.00    351.00    -17.61     3.67     3.71      0.0000    -85.07 LINEAR  1.4050E-05   -226.10  1.6287E-04    -46.10
   58.50    351.00    -19.36     2.29     2.32      0.0000    -85.27 LINEAR  1.1488E-05   -199.06  1.3882E-04    -19.06
   60.00    351.00    -20.56     1.47     1.49      0.0000    -85.47 LINEAR  1.0005E-05   -166.90  1.2633E-04     13.10
   61.50    351.00    -20.61     1.82     1.85      0.0000    -85.68 LINEAR  9.9466E-06   -133.68  1.3161E-04     46.32
   63.00    351.00    -19.76     3.11     3.13      0.0000    -85.89 LINEAR  1.0975E-05   -105.22  1.5263E-04     74.78
   64.50    351.00    -18.68     4.64     4.66      0.0000    -86.10 LINEAR  1.2417E-05    -82.87  1.8211E-04     97.13
   66.00    351.00    -17.78     6.04     6.06      0.0000    -86.31 LINEAR  1.3784E-05    -65.13  2.1396E-04   -245.13
   67.50    351.00    -17.14     7.20     7.22      0.0000    -86.53 LINEAR  1.4823E-05    -50.45  2.4456E-04   -230.45
   69.00    351.00    -16.79     8.13     8.14      0.0000    -86.75 LINEAR  1.5435E-05    -37.87  2.7194E-04   -217.87
   70.50    351.00    -16.70     8.84     8.85      0.0000    -86.97 LINEAR  1.5605E-05    -26.79  2.9516E-04   -206.79
   72.00    351.00    -16.83     9.37     9.38      0.0000    -87.20 LINEAR  1.5362E-05    -16.88  3.1387E-04   -196.88
   73.50    351.00    -17.18     9.76     9.77      0.0000    -87.42 LINEAR  1.4762E-05     -7.91  3.2815E-04   -187.91
   75.00    351.00    -17.72    10.02    10.03      0.0000    -87.65 LINEAR  1.3870E-05      0.23  3.3836E-04   -179.77
   76.50    351.00    -18.45    10.19    10.20      0.0000    -87.88 LINEAR  1.2756E-05      7.62  3.4501E-04   -172.38
   78.00    351.00    -19.36    10.29    10.29      0.0000    -88.11 LINEAR  1.1483E-05     14.29  3.4872E-04   -165.71
   79.50    351.00    -20.47    10.32    10.33      0.0000    -88.35 LINEAR  1.0107E-05     20.27  3.5017E-04   -159.73
   81.00    351.00    -21.80    10.32    10.32      0.0000    -88.58 LINEAR  8.6717E-06     25.55  3.4999E-04   -154.45
   82.50    351.00    -23.40    10.29    10.29      0.0000    -88.82 LINEAR  7.2107E-06     30.09  3.4879E-04   -149.91
   84.00    351.00    -25.38    10.25    10.25      0.0000    -89.05 LINEAR  5.7464E-06     33.88  3.4710E-04   -146.12
   85.50    351.00    -27.91    10.20    10.20      0.0000    -89.29 LINEAR  4.2914E-06     36.88  3.4534E-04   -143.12
   87.00    351.00    -31.47    10.16    10.16      0.0000    -89.53 LINEAR  2.8502E-06     39.05  3.4385E-04   -140.95
   88.50    351.00    -37.51    10.14    10.14      0.0000    -89.76 LINEAR  1.4215E-06     40.36  3.4286E-04   -139.64
    0.00    354.00    -22.84    -3.28    -3.23      0.0000    -84.00 LINEAR  7.6905E-06    -15.41  7.3170E-05   -195.41
    1.50    354.00    -19.80    -0.23    -0.18      0.0000    -84.00 LINEAR  1.0918E-05      3.47  1.0391E-04   -176.53
    3.00    354.00    -18.32     1.26     1.30      0.0000    -84.01 LINEAR  1.2942E-05     23.39  1.2330E-04   -156.61
    4.50    354.00    -17.98     1.61     1.66      0.0000    -84.02 LINEAR  1.3457E-05     43.60  1.2843E-04   -136.40
    6.00    354.00    -18.73     0.88     0.93      0.0000    -84.03 LINEAR  1.2344E-05     63.78  1.1810E-04   -116.22
    7.50    354.00    -20.84    -1.19    -1.15      0.0000    -84.05 LINEAR  9.6915E-06     83.60  9.3004E-05    -96.40
    9.00    354.00    -25.31    -5.64    -5.59      0.0000    -84.07 LINEAR  5.7880E-06   -258.03  5.5755E-05    -78.03
   10.50    354.00    -39.18   -19.47   -19.42      0.0000    -84.10 LINEAR  1.1725E-06   -259.52  1.1345E-05    -79.52
   12.00    354.00    -28.60    -8.84    -8.79      0.0000    -84.13 LINEAR  3.9646E-06    -23.95  3.8563E-05   -203.95
   13.50    354.00    -21.91    -2.10    -2.05      0.0000    -84.16 LINEAR  8.5655E-06     -7.78  8.3811E-05   -187.78
   15.00    354.00    -18.78     1.08     1.13      0.0000    -84.20 LINEAR  1.2273E-05     11.41  1.2089E-04   -168.59
   16.50    354.00    -17.26     2.67     2.72      0.0000    -84.25 LINEAR  1.4627E-05     31.19  1.4514E-04   -148.81
   18.00    354.00    -16.85     3.16     3.20      0.0000    -84.29 LINEAR  1.5339E-05     51.18  1.5345E-04   -128.82
   19.50    354.00    -17.44     2.64     2.68      0.0000    -84.34 LINEAR  1.4321E-05     71.34  1.4455E-04   -108.66
   21.00    354.00    -19.21     0.96     1.00      0.0000    -84.40 LINEAR  1.1691E-05     91.85  1.1915E-04    -88.15
   22.50    354.00    -22.77    -2.52    -2.48      0.0000    -84.45 LINEAR  7.7554E-06   -246.50  7.9867E-05    -66.50
   24.00    354.00    -31.01   -10.66   -10.62      0.0000    -84.52 LINEAR  3.0041E-06   -217.36  3.1287E-05    -37.36
   25.50    354.00    -32.92   -12.46   -12.43      0.0000    -84.58 LINEAR  2.4101E-06    -53.42  2.5405E-05   -233.42
   27.00    354.00    -23.34    -2.77    -2.73      0.0000    -84.65 LINEAR  7.2657E-06    -20.93  7.7585E-05   -200.93
   28.50    354.00    -19.36     1.33     1.36      0.0000    -84.72 LINEAR  1.1482E-05      0.57  1.2431E-04   -179.43
   30.00    354.00    -17.29     3.53     3.56      0.0000    -84.80 LINEAR  1.4580E-05     20.53  1.6018E-04   -159.47
   31.50    354.00    -16.33     4.62     4.66      0.0000    -84.88 LINEAR  1.6280E-05     40.04  1.8167E-04   -139.96
   33.00    354.00    -16.23     4.86     4.90      0.0000    -84.96 LINEAR  1.6466E-05     59.52  1.8680E-04   -120.48
   34.50    354.00    -16.94     4.31     4.34      0.0000    -85.05 LINEAR  1.5183E-05     79.35  1.7529E-04   -100.65
   36.00    354.00    -18.53     2.88     2.91      0.0000    -85.14 LINEAR  1.2634E-05   -259.71  1.4858E-04    -79.71
   37.50    354.00    -21.31     0.26     0.30      0.0000    -85.23 LINEAR  9.1728E-06   -235.66  1.1001E-04    -55.66
   39.00    354.00    -25.87    -4.11    -4.09      0.0000    -85.33 LINEAR  5.4273E-06   -200.79  6.6444E-05    -20.79
   40.50    354.00    -29.73    -7.78    -7.75      0.0000    -85.43 LINEAR  3.4820E-06   -126.76  4.3568E-05     53.24
   42.00    354.00    -25.06    -2.92    -2.89      0.0000    -85.53 LINEAR  5.9558E-06    -61.88  7.6251E-05   -241.88
   43.50    354.00    -21.02     1.34     1.37      0.0000    -85.64 LINEAR  9.4924E-06    -31.03  1.2451E-04   -211.03
   45.00    354.00    -18.57     4.01     4.04      0.0000    -85.75 LINEAR  1.2586E-05     -9.00  1.6934E-04   -189.00
   46.50    354.00    -17.12     5.69     5.71      0.0000    -85.86 LINEAR  1.4859E-05     10.08  2.0539E-04   -169.92
   48.00    354.00    -16.39     6.67     6.69      0.0000    -85.98 LINEAR  1.6177E-05     27.91  2.3002E-04   -152.09
   49.50    354.00    -16.20     7.12     7.14      0.0000    -86.10 LINEAR  1.6524E-05     45.21  2.4208E-04   -134.79
   51.00    354.00    -16.49     7.10     7.12      0.0000    -86.22 LINEAR  1.5979E-05     62.44  2.4158E-04   -117.56
   52.50    354.00    -17.22     6.66     6.67      0.0000    -86.34 LINEAR  1.4692E-05     80.11  2.2963E-04    -99.89
   54.00    354.00    -18.37     5.82     5.83      0.0000    -86.46 LINEAR  1.2876E-05   -261.15  2.0841E-04    -81.15
   55.50    354.00    -19.90     4.61     4.62      0.0000    -86.59 LINEAR  1.0796E-05   -240.28  1.8134E-04    -60.28
   57.00    354.00    -21.68     3.16     3.18      0.0000    -86.72 LINEAR  8.7896E-06   -215.66  1.5355E-04    -35.66
   58.50    354.00    -23.31     1.89     1.90      0.0000    -86.86 LINEAR  7.2851E-06   -185.60  1.3266E-04     -5.60
   60.00    354.00    -24.03     1.55     1.57      0.0000    -86.99 LINEAR  6.7056E-06   -151.27  1.2760E-04     28.73
   61.50    354.00    -23.53     2.46     2.47      0.0000    -87.13 LINEAR  7.1045E-06   -118.88  1.4166E-04     61.12
   63.00    354.00    -22.43     3.99     4.00      0.0000    -87.27 LINEAR  8.0641E-06    -92.79  1.6900E-04     87.21
   64.50    354.00    -21.35     5.54     5.54      0.0000    -87.41 LINEAR  9.1315E-06    -72.43  2.0181E-04   -252.43
   66.00    354.00    -20.53     6.85     6.86      0.0000    -87.55 LINEAR  1.0040E-05    -55.96  2.3485E-04   -235.96
   67.50    354.00    -20.00     7.91     7.92      0.0000    -87.70 LINEAR  1.0668E-05    -42.05  2.6523E-04   -222.05
   69.00    354.00    -19.75     8.73     8.73      0.0000    -87.84 LINEAR  1.0977E-05    -29.91  2.9144E-04   -209.91
   70.50    354.00    -19.76     9.34     9.35      0.0000    -87.99 LINEAR  1.0975E-05    -19.08  3.1282E-04   -199.08
   72.00    354.00    -19.98     9.79     9.79      0.0000    -88.14 LINEAR  1.0693E-05     -9.26  3.2924E-04   -189.26
   73.50    354.00    -20.41    10.09    10.09      0.0000    -88.29 LINEAR  1.0178E-05     -0.30  3.4096E-04   -180.30
   75.00    354.00    -21.03    10.28    10.28      0.0000    -88.44 LINEAR  9.4798E-06      7.90  3.4848E-04   -172.10
   76.50    354.00    -21.83    10.38    10.38      0.0000    -88.59 LINEAR  8.6481E-06     15.41  3.5246E-04   -164.59
   78.00    354.00    -22.80    10.41    10.41      0.0000    -88.75 LINEAR  7.7276E-06     22.25  3.5363E-04   -157.75
   79.50    354.00    -23.97    10.39    10.39      0.0000    -88.90 LINEAR  6.7560E-06     28.41  3.5273E-04   -151.59
   81.00    354.00    -25.35    10.33    10.33      0.0000    -89.06 LINEAR  5.7624E-06     33.89  3.5047E-04   -146.11
   82.50    354.00    -27.00    10.26    10.26      0.0000    -89.21 LINEAR  4.7673E-06     38.65  3.4750E-04   -141.35
   84.00    354.00    -29.01    10.18    10.18      0.0000    -89.37 LINEAR  3.7833E-06     42.63  3.4436E-04   -137.37
   85.50    354.00    -31.57    10.10    10.10      0.0000    -89.53 LINEAR  2.8161E-06     45.80  3.4149E-04   -134.20
   87.00    354.00    -35.15    10.05    10.05      0.0000    -89.68 LINEAR  1.8660E-06     48.11  3.3922E-04   -131.89
   88.50    354.00    -41.20    10.01    10.01      0.0000    -89.84 LINEAR  9.2931E-07     49.51  3.3777E-04   -130.49
    0.00    357.00    -28.85    -3.24    -3.23      0.0000    -87.00 LINEAR  3.8505E-06    -15.41  7.3473E-05   -195.41
    1.50    357.00    -25.80    -0.19    -0.17      0.0000    -87.00 LINEAR  5.4721E-06      3.55  1.0445E-04   -176.45
    3.00    357.00    -24.32     1.30     1.31      0.0000    -87.00 LINEAR  6.4854E-06     23.56  1.2392E-04   -156.44
    4.50    357.00    -24.00     1.64     1.66      0.0000    -87.01 LINEAR  6.7361E-06     43.85  1.2893E-04   -136.15
    6.00    357.00    -24.76     0.90     0.91      0.0000    -87.02 LINEAR  6.1651E-06     64.12  1.1828E-04   -115.88
    7.50    357.00    -26.91    -1.22    -1.21      0.0000    -87.03 LINEAR  4.8180E-06     84.00  9.2726E-05    -96.00
    9.00    357.00    -31.49    -5.77    -5.76      0.0000    -87.04 LINEAR  2.8434E-06   -257.62  5.4932E-05    -77.62
   10.50    357.00    -46.18   -20.42   -20.41      0.0000    -87.05 LINEAR  5.2387E-07     97.44  1.0166E-05    -82.56
   12.00    357.00    -34.26    -8.45    -8.44      0.0000    -87.07 LINEAR  2.0669E-06    -23.58  4.0320E-05   -203.58
   13.50    357.00    -27.75    -1.90    -1.89      0.0000    -87.08 LINEAR  4.3703E-06     -7.08  8.5759E-05   -187.08
   15.00    357.00    -24.70     1.22     1.23      0.0000    -87.10 LINEAR  6.2126E-06     12.24  1.2272E-04   -167.76
   16.50    357.00    -23.22     2.75     2.77      0.0000    -87.12 LINEAR  7.3629E-06     32.12  1.4653E-04   -147.88
   18.00    357.00    -22.86     3.19     3.20      0.0000    -87.15 LINEAR  7.6794E-06     52.21  1.5407E-04   -127.79
   19.50    357.00    -23.51     2.61     2.62      0.0000    -87.17 LINEAR  7.1221E-06     72.48  1.4417E-04   -107.52
   21.00    357.00    -25.36     0.85     0.86      0.0000    -87.20 LINEAR  5.7556E-06     93.12  1.1764E-04    -86.88
   22.50    357.00    -29.11    -2.81    -2.80      0.0000    -87.23 LINEAR  3.7404E-06   -244.99  7.7251E-05    -64.99
   24.00    357.00    -38.06   -11.66   -11.65      0.0000    -87.26 LINEAR  1.3340E-06   -213.92  2.7863E-05    -33.92
   25.50    357.00    -37.69   -11.19   -11.18      0.0000    -87.29 LINEAR  1.3921E-06    -49.27  2.9430E-05   -229.27
   27.00    357.00    -28.90    -2.29    -2.28      0.0000    -87.33 LINEAR  3.8289E-06    -19.07  8.1998E-05   -199.07
   28.50    357.00    -25.12     1.61     1.62      0.0000    -87.36 LINEAR  5.9158E-06      2.31  1.2845E-04   -177.69
   30.00    357.00    -23.15     3.71     3.72      0.0000    -87.40 LINEAR  7.4217E-06     22.32  1.6352E-04   -157.68
   31.50    357.00    -22.28     4.72     4.73      0.0000    -87.44 LINEAR  8.2105E-06     41.93  1.8374E-04   -138.07
   33.00    357.00    -22.26     4.88     4.89      0.0000    -87.48 LINEAR  8.2298E-06     61.53  1.8724E-04   -118.47
   34.50    357.00    -23.05     4.24     4.25      0.0000    -87.53 LINEAR  7.5108E-06     81.55  1.7390E-04    -98.45
   36.00    357.00    -24.77     2.69     2.69      0.0000    -87.57 LINEAR  6.1634E-06   -257.17  1.4537E-04    -77.17
   37.50    357.00    -27.74    -0.12    -0.11      0.0000    -87.62 LINEAR  4.3777E-06   -232.31  1.0529E-04    -52.31
   39.00    357.00    -32.57    -4.77    -4.76      0.0000    -87.67 LINEAR  2.5094E-06   -194.36  6.1613E-05    -14.36
   40.50    357.00    -35.41    -7.41    -7.41      0.0000    -87.72 LINEAR  1.8108E-06   -114.69  4.5439E-05     65.31
   42.00    357.00    -30.34    -2.15    -2.14      0.0000    -87.77 LINEAR  3.2454E-06    -56.38  8.3329E-05   -236.38
   43.50    357.00    -26.53     1.87     1.87      0.0000    -87.82 LINEAR  5.0284E-06    -27.39  1.3227E-04   -207.39
   45.00    357.00    -24.25     4.38     4.38      0.0000    -87.88 LINEAR  6.5438E-06     -5.85  1.7658E-04   -185.85
   46.50    357.00    -22.92     5.94     5.94      0.0000    -87.93 LINEAR  7.6257E-06     13.12  2.1138E-04   -166.88
   48.00    357.00    -22.27     6.83     6.84      0.0000    -87.99 LINEAR  8.2145E-06     30.98  2.3425E-04   -149.02
   49.50    357.00    -22.17     7.19     7.20      0.0000    -88.05 LINEAR  8.3104E-06     48.39  2.4416E-04   -131.61
   51.00    357.00    -22.55     7.09     7.09      0.0000    -88.11 LINEAR  7.9597E-06     65.85  2.4134E-04   -114.15
   52.50    357.00    -23.36     6.56     6.57      0.0000    -88.17 LINEAR  7.2457E-06     83.86  2.2711E-04    -96.14
   54.00    357.00    -24.60     5.63     5.63      0.0000    -88.24 LINEAR  6.2826E-06   -256.83  2.0395E-04    -76.83
   55.50    357.00    -26.22     4.33     4.34      0.0000    -88.30 LINEAR  5.2158E-06   -235.01  1.7571E-04    -55.01
   57.00    357.00    -28.03     2.86     2.86      0.0000    -88.37 LINEAR  4.2318E-06   -208.87  1.4826E-04    -28.87
   58.50    357.00    -29.52     1.73     1.73      0.0000    -88.43 LINEAR  3.5658E-06   -176.95  1.3022E-04      3.05
   60.00    357.00    -29.89     1.74     1.74      0.0000    -88.50 LINEAR  3.4160E-06   -141.89  1.3036E-04     38.11
   61.50    357.00    -29.11     2.93     2.93      0.0000    -88.57 LINEAR  3.7372E-06   -110.56  1.4945E-04     69.44
   63.00    357.00    -27.93     4.54     4.54      0.0000    -88.64 LINEAR  4.2803E-06    -85.91  1.7990E-04     94.09
   64.50    357.00    -26.88     6.05     6.05      0.0000    -88.71 LINEAR  4.8312E-06    -66.58  2.1413E-04   -246.58
   66.00    357.00    -26.12     7.31     7.31      0.0000    -88.78 LINEAR  5.2751E-06    -50.73  2.4747E-04   -230.73
   67.50    357.00    -25.66     8.30     8.30      0.0000    -88.85 LINEAR  5.5632E-06    -37.19  2.7739E-04   -217.19
   69.00    357.00    -25.47     9.05     9.06      0.0000    -88.92 LINEAR  5.6835E-06    -25.25  3.0261E-04   -205.25
   70.50    357.00    -25.53     9.61     9.61      0.0000    -89.00 LINEAR  5.6443E-06    -14.51  3.2264E-04   -194.51
   72.00    357.00    -25.81    10.00    10.00      0.0000    -89.07 LINEAR  5.4655E-06     -4.72  3.3748E-04   -184.72
   73.50    357.00    -26.29    10.26    10.26      0.0000    -89.15 LINEAR  5.1723E-06      4.27  3.4750E-04   -175.73
   75.00    357.00    -26.95    10.40    10.40      0.0000    -89.22 LINEAR  4.7918E-06     12.55  3.5327E-04   -167.45
   76.50    357.00    -27.79    10.45    10.45      0.0000    -89.30 LINEAR  4.3498E-06     20.16  3.5554E-04   -159.84
   78.00    357.00    -28.81    10.44    10.44      0.0000    -89.38 LINEAR  3.8692E-06     27.12  3.5509E-04   -152.88
   79.50    357.00    -30.01    10.39    10.39      0.0000    -89.45 LINEAR  3.3688E-06     33.43  3.5274E-04   -146.57
   81.00    357.00    -31.43    10.30    10.30      0.0000    -89.53 LINEAR  2.8630E-06     39.07  3.4921E-04   -140.93
   82.50    357.00    -33.10    10.20    10.20      0.0000    -89.61 LINEAR  2.3613E-06     43.98  3.4518E-04   -136.02
   84.00    357.00    -35.13    10.10    10.10      0.0000    -89.69 LINEAR  1.8691E-06     48.11  3.4120E-04   -131.89
   85.50    357.00    -37.71    10.01    10.01      0.0000    -89.76 LINEAR  1.3886E-06     51.41  3.3770E-04   -128.59
   87.00    357.00    -41.30     9.94     9.94      0.0000    -89.84 LINEAR  9.1880E-07     53.82  3.3498E-04   -126.18
   88.50    357.00    -47.36     9.89     9.89      0.0000    -89.92 LINEAR  4.5722E-07     55.28  3.3328E-04   -124.72


  AVERAGE POWER GAIN:  9.4304E-01 - SOLID ANGLE USED IN AVERAGING: (+1.9314)*PI STERADIANS



  DATA CARD No:   4 EN   0     0     0     0  0.00000E+00  0.00000E+00  0.00000E+00  0.00000E+00  0.00000E+00  0.00000E+00

  TOTAL RUN TIME: 1030 msec