


                               __________________________________________
                              |                                          |
                              |  NUMERICAL ELECTROMAGNETICS CODE (nec2c) |
                              |   Translated to 'C' in Double Precision  |
                              |__________________________________________|



                               ---------------- COMMENTS ----------------
                               NEC Input File for log-periodic
                               PT control card supresses printing of element currents
                               TL control card specs transmission line in terms of Z,length,and shunt Y
                              



                               -------- STRUCTURE SPECIFICATION --------
                                     COORDINATES MUST BE INPUT IN
                                     METERS OR BE SCALED TO METERS
                                     BEFORE STRUCTURE INPUT IS ENDED

  WIRE                                                                                 SEG FIRST  LAST  TAG
   No:        X1         Y1         Z1         X2         Y2         Z2       RADIUS   No:   SEG   SEG  No:
     1     -9.6670    -2.1420     0.0000    -9.6670     2.1420     0.0000     0.0043     7     1     7    3
     2    -11.1070    -2.4630     0.0000   -11.1070     2.4630     0.0000     0.0049     7     8    14    4
     3    -12.7680    -2.8320     0.0000   -12.7680     2.8320     0.0000     0.0057     7    15    21    5
     4    -14.6750    -3.2550     0.0000   -14.6750     3.2550     0.0000     0.0065     9    22    30    6
     5    -16.8650    -3.7410     0.0000   -16.8650     3.7410     0.0000     0.0075     9    31    39    7
     6    -19.3830    -4.2990     0.0000   -19.3830     4.2990     0.0000     0.0086     9    40    48    8
     7    -22.2770    -4.9440     0.0000   -22.2770     4.9440     0.0000     0.0099    11    49    59    9
     8    -25.6030    -5.6820     0.0000   -25.6030     5.6820     0.0000     0.0114    11    60    70   10
     9    -29.4250    -6.5310     0.0000   -29.4250     6.5310     0.0000     0.0131    11    71    81   11

     TOTAL SEGMENTS USED: 81   SEGMENTS IN A SYMMETRIC CELL: 81   SYMMETRY FLAG: 0


                               ---------- SEGMENTATION DATA ----------
                                        COORDINATES IN METERS
                            I+ AND I- INDICATE THE SEGMENTS BEFORE AND AFTER I

   SEG    COORDINATES OF SEGM CENTER     SEGM    ORIENTATION ANGLES    WIRE    CONNECTION DATA   TAG
   No:       X         Y         Z      LENGTH     ALPHA      BETA    RADIUS    I-     I    I+   No:
     1   -9.6670   -1.8360    0.0000    0.6120    0.0000   90.0000    0.0043     0     1     2     3
     2   -9.6670   -1.2240    0.0000    0.6120    0.0000   90.0000    0.0043     1     2     3     3
     3   -9.6670   -0.6120    0.0000    0.6120    0.0000   90.0000    0.0043     2     3     4     3
     4   -9.6670   -0.0000    0.0000    0.6120    0.0000   90.0000    0.0043     3     4     5     3
     5   -9.6670    0.6120    0.0000    0.6120    0.0000   90.0000    0.0043     4     5     6     3
     6   -9.6670    1.2240    0.0000    0.6120    0.0000   90.0000    0.0043     5     6     7     3
     7   -9.6670    1.8360    0.0000    0.6120    0.0000   90.0000    0.0043     6     7     0     3
     8  -11.1070   -2.1111    0.0000    0.7037    0.0000   90.0000    0.0049     0     8     9     4
     9  -11.1070   -1.4074    0.0000    0.7037    0.0000   90.0000    0.0049     8     9    10     4
    10  -11.1070   -0.7037    0.0000    0.7037    0.0000   90.0000    0.0049     9    10    11     4
    11  -11.1070    0.0000    0.0000    0.7037    0.0000   90.0000    0.0049    10    11    12     4
    12  -11.1070    0.7037    0.0000    0.7037    0.0000   90.0000    0.0049    11    12    13     4
    13  -11.1070    1.4074    0.0000    0.7037    0.0000   90.0000    0.0049    12    13    14     4
    14  -11.1070    2.1111    0.0000    0.7037    0.0000   90.0000    0.0049    13    14     0     4
    15  -12.7680   -2.4274    0.0000    0.8091    0.0000   90.0000    0.0057     0    15    16     5
    16  -12.7680   -1.6183    0.0000    0.8091    0.0000   90.0000    0.0057    15    16    17     5
    17  -12.7680   -0.8091    0.0000    0.8091    0.0000   90.0000    0.0057    16    17    18     5
    18  -12.7680    0.0000    0.0000    0.8091    0.0000   90.0000    0.0057    17    18    19     5
    19  -12.7680    0.8091    0.0000    0.8091    0.0000   90.0000    0.0057    18    19    20     5
    20  -12.7680    1.6183    0.0000    0.8091    0.0000   90.0000    0.0057    19    20    21     5
    21  -12.7680    2.4274    0.0000    0.8091    0.0000   90.0000    0.0057    20    21     0     5
    22  -14.6750   -2.8933    0.0000    0.7233    0.0000   90.0000    0.0065     0    22    23     6
    23  -14.6750   -2.1700    0.0000    0.7233    0.0000   90.0000    0.0065    22    23    24     6
    24  -14.6750   -1.4467    0.0000    0.7233    0.0000   90.0000    0.0065    23    24    25     6
    25  -14.6750   -0.7233    0.0000    0.7233    0.0000   90.0000    0.0065    24    25    26     6
    26  -14.6750    0.0000    0.0000    0.7233    0.0000   90.0000    0.0065    25    26    27     6
    27  -14.6750    0.7233    0.0000    0.7233    0.0000   90.0000    0.0065    26    27    28     6
    28  -14.6750    1.4467    0.0000    0.7233    0.0000   90.0000    0.0065    27    28    29     6
    29  -14.6750    2.1700    0.0000    0.7233    0.0000   90.0000    0.0065    28    29    30     6
    30  -14.6750    2.8933    0.0000    0.7233    0.0000   90.0000    0.0065    29    30     0     6
    31  -16.8650   -3.3253    0.0000    0.8313    0.0000   90.0000    0.0075     0    31    32     7
    32  -16.8650   -2.4940    0.0000    0.8313    0.0000   90.0000    0.0075    31    32    33     7
    33  -16.8650   -1.6627    0.0000    0.8313    0.0000   90.0000    0.0075    32    33    34     7
    34  -16.8650   -0.8313    0.0000    0.8313    0.0000   90.0000    0.0075    33    34    35     7
    35  -16.8650   -0.0000    0.0000    0.8313    0.0000   90.0000    0.0075    34    35    36     7
    36  -16.8650    0.8313    0.0000    0.8313    0.0000   90.0000    0.0075    35    36    37     7
    37  -16.8650    1.6627    0.0000    0.8313    0.0000   90.0000    0.0075    36    37    38     7
    38  -16.8650    2.4940    0.0000    0.8313    0.0000   90.0000    0.0075    37    38    39     7
    39  -16.8650    3.3253    0.0000    0.8313    0.0000   90.0000    0.0075    38    39     0     7
    40  -19.3830   -3.8213    0.0000    0.9553    0.0000   90.0000    0.0086     0    40    41     8
    41  -19.3830   -2.8660    0.0000    0.9553    0.0000   90.0000    0.0086    40    41    42     8
    42  -19.3830   -1.9107    0.0000    0.9553    0.0000   90.0000    0.0086    41    42    43     8
    43  -19.3830   -0.9553    0.0000    0.9553    0.0000   90.0000    0.0086    42    43    44     8
    44  -19.3830    0.0000    0.0000    0.9553    0.0000   90.0000    0.0086    43    44    45     8
    45  -19.3830    0.9553    0.0000    0.9553    0.0000   90.0000    0.0086    44    45    46     8
    46  -19.3830    1.9107    0.0000    0.9553    0.0000   90.0000    0.0086    45    46    47     8
    47  -19.3830    2.8660    0.0000    0.9553    0.0000   90.0000    0.0086    46    47    48     8
    48  -19.3830    3.8213    0.0000    0.9553    0.0000   90.0000    0.0086    47    48     0     8
    49  -22.2770   -4.4945    0.0000    0.8989    0.0000   90.0000    0.0099     0    49    50     9
    50  -22.2770   -3.5956    0.0000    0.8989    0.0000   90.0000    0.0099    49    50    51     9
    51  -22.2770   -2.6967    0.0000    0.8989    0.0000   90.0000    0.0099    50    51    52     9
    52  -22.2770   -1.7978    0.0000    0.8989    0.0000   90.0000    0.0099    51    52    53     9
    53  -22.2770   -0.8989    0.0000    0.8989    0.0000   90.0000    0.0099    52    53    54     9
    54  -22.2770   -0.0000    0.0000    0.8989    0.0000   90.0000    0.0099    53    54    55     9
    55  -22.2770    0.8989    0.0000    0.8989    0.0000   90.0000    0.0099    54    55    56     9
    56  -22.2770    1.7978    0.0000    0.8989    0.0000   90.0000    0.0099    55    56    57     9
    57  -22.2770    2.6967    0.0000    0.8989    0.0000   90.0000    0.0099    56    57    58     9
    58  -22.2770    3.5956    0.0000    0.8989    0.0000   90.0000    0.0099    57    58    59     9
    59  -22.2770    4.4945    0.0000    0.8989    0.0000   90.0000    0.0099    58    59     0     9
    60  -25.6030   -5.1655    0.0000    1.0331    0.0000   90.0000    0.0114     0    60    61    10
    61  -25.6030   -4.1324    0.0000    1.0331    0.0000   90.0000    0.0114    60    61    62    10
    62  -25.6030   -3.0993    0.0000    1.0331    0.0000   90.0000    0.0114    61    62    63    10
    63  -25.6030   -2.0662    0.0000    1.0331    0.0000   90.0000    0.0114    62    63    64    10
    64  -25.6030   -1.0331    0.0000    1.0331    0.0000   90.0000    0.0114    63    64    65    10
    65  -25.6030    0.0000    0.0000    1.0331    0.0000   90.0000    0.0114    64    65    66    10
    66  -25.6030    1.0331    0.0000    1.0331    0.0000   90.0000    0.0114    65    66    67    10
    67  -25.6030    2.0662    0.0000    1.0331    0.0000   90.0000    0.0114    66    67    68    10
    68  -25.6030    3.0993    0.0000    1.0331    0.0000   90.0000    0.0114    67    68    69    10
    69  -25.6030    4.1324    0.0000    1.0331    0.0000   90.0000    0.0114    68    69    70    10
    70  -25.6030    5.1655    0.0000    1.0331    0.0000   90.0000    0.0114    69    70     0    10
    71  -29.4250   -5.9373    0.0000    1.1875    0.0000   90.0000    0.0131     0    71    72    11
    72  -29.4250   -4.7498    0.0000    1.1875    0.0000   90.0000    0.0131    71    72    73    11
    73  -29.4250   -3.5624    0.0000    1.1875    0.0000   90.0000    0.0131    72    73    74    11
    74  -29.4250   -2.3749    0.0000    1.1875    0.0000   90.0000    0.0131    73    74    75    11
    75  -29.4250   -1.1875    0.0000    1.1875    0.0000   90.0000    0.0131    74    75    76    11
    76  -29.4250   -0.0000    0.0000    1.1875    0.0000   90.0000    0.0131    75    76    77    11
    77  -29.4250    1.1875    0.0000    1.1875    0.0000   90.0000    0.0131    76    77    78    11
    78  -29.4250    2.3749    0.0000    1.1875    0.0000   90.0000    0.0131    77    78    79    11
    79  -29.4250    3.5624    0.0000    1.1875    0.0000   90.0000    0.0131    78    79    80    11
    80  -29.4250    4.7498    0.0000    1.1875    0.0000   90.0000    0.0131    79    80    81    11
    81  -29.4250    5.9373    0.0000    1.1875    0.0000   90.0000    0.0131    80    81     0    11



  DATA CARD No:   1 FR   0     2     0     0  1.20000E+01  4.00000E+00  0.00000E+00  0.00000E+00  0.00000E+00  0.00000E+00
  DATA CARD No:   2 TL   3     4     4     4 -4.50000E+02  0.00000E+00  0.00000E+00  0.00000E+00  0.00000E+00  0.00000E+00
  DATA CARD No:   3 TL   4     4     5     4 -4.50000E+02  0.00000E+00  0.00000E+00  0.00000E+00  0.00000E+00  0.00000E+00
  DATA CARD No:   4 TL   5     4     6     5 -4.50000E+02  0.00000E+00  0.00000E+00  0.00000E+00  0.00000E+00  0.00000E+00
  DATA CARD No:   5 TL   6     5     7     5 -4.50000E+02  0.00000E+00  0.00000E+00  0.00000E+00  0.00000E+00  0.00000E+00
  DATA CARD No:   6 TL   7     5     8     5 -4.50000E+02  0.00000E+00  0.00000E+00  0.00000E+00  0.00000E+00  0.00000E+00
  DATA CARD No:   7 TL   8     5     9     6 -4.50000E+02  0.00000E+00  0.00000E+00  0.00000E+00  0.00000E+00  0.00000E+00
  DATA CARD No:   8 TL   9     6    10     6 -4.50000E+02  0.00000E+00  0.00000E+00  0.00000E+00  0.00000E+00  0.00000E+00
  DATA CARD No:   9 TL  10     6    11     6 -4.50000E+02  0.00000E+00  0.00000E+00  0.00000E+00  0.00000E+00 -2.20000E-03
  DATA CARD No:  10 EX   0     3     4     0  1.00000E+00  0.00000E+00  0.00000E+00  0.00000E+00  0.00000E+00  0.00000E+00
  DATA CARD No:  11 PT  -1     0     0     0  0.00000E+00  0.00000E+00  0.00000E+00  0.00000E+00  0.00000E+00  0.00000E+00
  DATA CARD No:  12 RP   0    37    37  1001  0.00000E+00  0.00000E+00  5.00000E+00  1.00000E+01  0.00000E+00  0.00000E+00


                               --------- FREQUENCY --------
                                FREQUENCY : 1.2000E+01 MHz
                                WAVELENGTH: 2.4983E+01 Mtr

                        APPROXIMATE INTEGRATION EMPLOYED FOR SEGMENTS 
                        THAT ARE MORE THAN 1.000 WAVELENGTHS APART


                          ------ STRUCTURE IMPEDANCE LOADING ------
                                 THIS STRUCTURE IS NOT LOADED


                            -------- ANTENNA ENVIRONMENT --------
                            FREE SPACE


                             ---------- MATRIX TIMING ----------
                               FILL: 40 msec  FACTOR: 10 msec


                                            ---------- NETWORK DATA ----------
  -- FROM -  --- TO --      TRANSMISSION LINE        --------- SHUNT ADMITTANCES (MHOS) ---------   LINE
  TAG   SEG  TAG   SEG    IMPEDANCE      LENGTH     ----- END ONE -----      ----- END TWO -----   TYPE
  No:   No:  No:   No:         OHMS      METERS      REAL      IMAGINARY      REAL      IMAGINARY
    3     4    4    11   4.5000E+02  1.4400E+00   0.0000E+00  0.0000E+00   0.0000E+00  0.0000E+00  CROSSED
    4    11    5    18   4.5000E+02  1.6610E+00   0.0000E+00  0.0000E+00   0.0000E+00  0.0000E+00  CROSSED
    5    18    6    26   4.5000E+02  1.9070E+00   0.0000E+00  0.0000E+00   0.0000E+00  0.0000E+00  CROSSED
    6    26    7    35   4.5000E+02  2.1900E+00   0.0000E+00  0.0000E+00   0.0000E+00  0.0000E+00  CROSSED
    7    35    8    44   4.5000E+02  2.5180E+00   0.0000E+00  0.0000E+00   0.0000E+00  0.0000E+00  CROSSED
    8    44    9    54   4.5000E+02  2.8940E+00   0.0000E+00  0.0000E+00   0.0000E+00  0.0000E+00  CROSSED
    9    54   10    65   4.5000E+02  3.3260E+00   0.0000E+00  0.0000E+00   0.0000E+00  0.0000E+00  CROSSED
   10    65   11    76   4.5000E+02  3.8220E+00   0.0000E+00  0.0000E+00   0.0000E+00 -2.2000E-03  CROSSED


                          --------- STRUCTURE EXCITATION DATA AT NETWORK CONNECTION POINTS --------
  TAG   SEG       VOLTAGE (VOLTS)          CURRENT (AMPS)         IMPEDANCE (OHMS)       ADMITTANCE (MHOS)     POWER
  No:   No:     REAL      IMAGINARY     REAL      IMAGINARY     REAL      IMAGINARY     REAL      IMAGINARY   (WATTS)
    4    11 -7.5525E-01  4.5585E-01 -5.3746E-04 -9.6097E-04 -2.6509E+01 -8.0076E+02 -4.1297E-05  1.2475E-03 -1.6069E-05
    5    18  1.7852E-01 -8.0666E-01  1.1343E-03  7.1076E-05  1.1238E+02 -7.1821E+02  2.1267E-04  1.3591E-03  7.2580E-05
    6    26  5.2980E-01  8.0024E-01 -1.2448E-03  6.9671E-04 -5.0113E+01 -6.7090E+02 -1.1072E-04  1.4823E-03 -5.0991E-05
    7    35 -1.0230E+00 -2.7906E-01  1.0015E-03 -2.5481E-03 -4.1818E+01 -3.8503E+02 -2.7879E-04  2.5669E-03 -1.5673E-04
    8    44  5.3265E-01 -6.7776E-01  2.9495E-03  1.6163E-03  4.2046E+01 -2.5283E+02  6.4008E-04  3.8488E-03  2.3781E-04
    9    54  7.5345E-01  5.5093E-01 -1.4142E-03  4.7178E-03  6.3224E+01 -1.7866E+02  1.7603E-03  4.9744E-03  7.6681E-04
   10    65 -1.5102E-01  4.0048E-01 -3.1767E-03  1.4616E-03  8.7106E+01 -8.5994E+01  5.8139E-03  5.7397E-03  5.3254E-04
   11    76 -9.4738E-02  3.7804E-02 -1.2273E-03 -7.6476E-04  4.1777E+01 -5.6835E+01  8.3965E-03  1.1423E-02  4.3680E-05
    3     4  1.0000E+00  0.0000E+00 -2.4235E-05  8.4964E-04 -3.3545E+01 -1.1760E+03 -2.4235E-05  8.4964E-04 -1.2118E-05


                        --------- ANTENNA INPUT PARAMETERS ---------
  TAG   SEG       VOLTAGE (VOLTS)         CURRENT (AMPS)         IMPEDANCE (OHMS)        ADMITTANCE (MHOS)     POWER
  No:   No:     REAL      IMAGINARY     REAL      IMAGINARY     REAL      IMAGINARY    REAL       IMAGINARY   (WATTS)
    3     4  1.0000E+00  0.0000E+00  2.8350E-03 -2.7865E-04  3.4936E+02  3.4338E+01  2.8350E-03 -2.7865E-04  1.4175E-03


                               ---------- POWER BUDGET ---------
                               INPUT POWER   =  1.4175E-03 Watts
                               RADIATED POWER=  1.4175E-03 Watts
                               STRUCTURE LOSS=  0.0000E+00 Watts
                               NETWORK LOSS  =  4.2352E-21 Watts
                               EFFICIENCY    =  100.00 Percent


                             ---------- RADIATION PATTERNS -----------

 ---- ANGLES -----     ----- POWER GAINS -----       ---- POLARIZATION ----   ---- E(THETA) ----    ----- E(PHI) ------
  THETA      PHI       VERTC    HORIZ    TOTAL       AXIAL      TILT  SENSE   MAGNITUDE    PHASE    MAGNITUDE     PHASE
 DEGREES   DEGREES        DB       DB       DB       RATIO   DEGREES            VOLTS/M   DEGREES     VOLTS/M   DEGREES
    0.00      0.00   -999.99     0.32     0.32      0.0000     90.00 LINEAR  0.0000E+00      0.00  3.0258E-01     33.75
    5.00      0.00   -999.99     1.04     1.04      0.0000     90.00 LINEAR  0.0000E+00      0.00  3.2878E-01      1.86
   10.00      0.00   -999.99     1.73     1.73      0.0000     90.00 LINEAR  0.0000E+00      0.00  3.5568E-01    -29.60
   15.00      0.00   -999.99     2.37     2.37      0.0000     90.00 LINEAR  0.0000E+00      0.00  3.8281E-01    -60.39
   20.00      0.00   -999.99     2.96     2.96      0.0000    -90.00 LINEAR  0.0000E+00      0.00  4.0973E-01    -90.30
   25.00      0.00   -999.99     3.50     3.50      0.0000    -90.00 LINEAR  0.0000E+00      0.00  4.3599E-01   -119.12
   30.00      0.00   -999.99     3.98     3.98      0.0000    -90.00 LINEAR  0.0000E+00      0.00  4.6117E-01   -146.64
   35.00      0.00   -999.99     4.42     4.42      0.0000    -90.00 LINEAR  0.0000E+00      0.00  4.8489E-01   -172.67
   40.00      0.00   -999.99     4.80     4.80      0.0000    -90.00 LINEAR  0.0000E+00      0.00  5.0681E-01    162.95
   45.00      0.00   -999.99     5.14     5.14      0.0000    -90.00 LINEAR  0.0000E+00      0.00  5.2668E-01    140.41
   50.00      0.00   -999.99     5.42     5.42      0.0000    -90.00 LINEAR  0.0000E+00      0.00  5.4433E-01    119.84
   55.00      0.00   -999.99     5.66     5.66      0.0000    -90.00 LINEAR  0.0000E+00      0.00  5.5965E-01    101.38
   60.00      0.00   -999.99     5.86     5.86      0.0000     90.00 LINEAR  0.0000E+00      0.00  5.7264E-01     85.14
   65.00      0.00   -999.99     6.02     6.02      0.0000     90.00 LINEAR  0.0000E+00      0.00  5.8334E-01     71.23
   70.00      0.00   -999.99     6.15     6.15      0.0000     90.00 LINEAR  0.0000E+00      0.00  5.9185E-01     59.74
   75.00      0.00   -999.99     6.24     6.24      0.0000     90.00 LINEAR  0.0000E+00      0.00  5.9829E-01     50.72
   80.00      0.00   -999.99     6.31     6.31      0.0000     90.00 LINEAR  0.0000E+00      0.00  6.0278E-01     44.24
   85.00      0.00   -999.99     6.35     6.35      0.0000     90.00 LINEAR  0.0000E+00      0.00  6.0543E-01     40.34
   90.00      0.00   -999.99     6.36     6.36      0.0000     90.00 LINEAR  0.0000E+00      0.00  6.0631E-01     39.04
   95.00      0.00   -999.99     6.35     6.35      0.0000     90.00 LINEAR  0.0000E+00      0.00  6.0543E-01     40.34
  100.00      0.00   -999.99     6.31     6.31      0.0000     90.00 LINEAR  0.0000E+00      0.00  6.0278E-01     44.24
  105.00      0.00   -999.99     6.24     6.24      0.0000     90.00 LINEAR  0.0000E+00      0.00  5.9829E-01     50.72
  110.00      0.00   -999.99     6.15     6.15      0.0000     90.00 LINEAR  0.0000E+00      0.00  5.9185E-01     59.74
  115.00      0.00   -999.99     6.02     6.02      0.0000     90.00 LINEAR  0.0000E+00      0.00  5.8334E-01     71.23
  120.00      0.00   -999.99     5.86     5.86      0.0000     90.00 LINEAR  0.0000E+00      0.00  5.7264E-01     85.14
  125.00      0.00   -999.99     5.66     5.66      0.0000    -90.00 LINEAR  0.0000E+00      0.00  5.5965E-01    101.38
  130.00      0.00   -999.99     5.42     5.42      0.0000    -90.00 LINEAR  0.0000E+00      0.00  5.4433E-01    119.84
  135.00      0.00   -999.99     5.14     5.14      0.0000    -90.00 LINEAR  0.0000E+00      0.00  5.2668E-01    140.41
  140.00      0.00   -999.99     4.80     4.80      0.0000    -90.00 LINEAR  0.0000E+00      0.00  5.0681E-01    162.95
  145.00      0.00   -999.99     4.42     4.42      0.0000    -90.00 LINEAR  0.0000E+00      0.00  4.8489E-01   -172.67
  150.00      0.00   -999.99     3.98     3.98      0.0000    -90.00 LINEAR  0.0000E+00      0.00  4.6117E-01   -146.64
  155.00      0.00   -999.99     3.50     3.50      0.0000    -90.00 LINEAR  0.0000E+00      0.00  4.3599E-01   -119.12
  160.00      0.00   -999.99     2.96     2.96      0.0000    -90.00 LINEAR  0.0000E+00      0.00  4.0973E-01    -90.30
  165.00      0.00   -999.99     2.37     2.37      0.0000     90.00 LINEAR  0.0000E+00      0.00  3.8281E-01    -60.39
  170.00      0.00   -999.99     1.73     1.73      0.0000     90.00 LINEAR  0.0000E+00      0.00  3.5568E-01    -29.60
  175.00      0.00   -999.99     1.04     1.04      0.0000     90.00 LINEAR  0.0000E+00      0.00  3.2878E-01      1.86
  180.00      0.00   -999.99     0.32     0.32      0.0000     90.00 LINEAR  0.0000E+00      0.00  3.0258E-01     33.75
    0.00     10.00    -14.88     0.19     0.32      0.0000     80.00 LINEAR  5.2542E-02     33.75  2.9798E-01     33.75
    5.00     10.00    -14.21     0.90     1.03      0.0000     80.04 LINEAR  5.6803E-02      2.34  3.2337E-01      2.34
   10.00     10.00    -13.63     1.57     1.70      0.0000     80.15 LINEAR  6.0672E-02    -28.64  3.4939E-01    -28.64
   15.00     10.00    -13.17     2.20     2.33      0.0000     80.33 LINEAR  6.3973E-02    -58.98  3.7561E-01    -58.98
   20.00     10.00    -12.83     2.78     2.90      0.0000     80.59 LINEAR  6.6538E-02    -88.44  4.0158E-01    -88.44
   25.00     10.00    -12.62     3.31     3.42      0.0000     80.92 LINEAR  6.8218E-02   -116.84  4.2688E-01   -116.84
   30.00     10.00    -12.53     3.79     3.89      0.0000     81.32 LINEAR  6.8886E-02   -143.96  4.5111E-01   -143.96
   35.00     10.00    -12.59     4.22     4.31      0.0000     81.78 LINEAR  6.8451E-02   -169.62  4.7391E-01   -169.62
   40.00     10.00    -12.79     4.60     4.68      0.0000     82.31 LINEAR  6.6858E-02    166.36  4.9497E-01    166.36
   45.00     10.00    -13.16     4.93     4.99      0.0000     82.89 LINEAR  6.4093E-02    144.14  5.1405E-01    144.14
   50.00     10.00    -13.70     5.21     5.26      0.0000     83.53 LINEAR  6.0183E-02    123.87  5.3099E-01    123.87
   55.00     10.00    -14.46     5.45     5.49      0.0000     84.22 LINEAR  5.5190E-02    105.67  5.4570E-01    105.67
   60.00     10.00    -15.45     5.64     5.68      0.0000     84.96 LINEAR  4.9210E-02     89.67  5.5816E-01     89.67
   65.00     10.00    -16.75     5.80     5.82      0.0000     85.74 LINEAR  4.2359E-02     75.96  5.6844E-01     75.96
   70.00     10.00    -18.47     5.92     5.94      0.0000     86.55 LINEAR  3.4774E-02     64.62  5.7661E-01     64.62
   75.00     10.00    -20.80     6.02     6.03      0.0000     87.39 LINEAR  2.6597E-02     55.74  5.8281E-01     55.74
   80.00     10.00    -24.20     6.08     6.08      0.0000     88.25 LINEAR  1.7977E-02     49.35  5.8713E-01     49.35
   85.00     10.00    -30.15     6.12     6.12      0.0000     89.12 LINEAR  9.0621E-03     45.50  5.8968E-01     45.50
   90.00     10.00   -999.99     6.13     6.13      0.0000    -90.00 LINEAR  5.3139E-13   -135.78  5.9052E-01     44.22
   95.00     10.00    -30.15     6.12     6.12      0.0000    -89.12 LINEAR  9.0621E-03   -134.50  5.8968E-01     45.50
  100.00     10.00    -24.20     6.08     6.08      0.0000    -88.25 LINEAR  1.7977E-02   -130.65  5.8713E-01     49.35
  105.00     10.00    -20.80     6.02     6.03      0.0000    -87.39 LINEAR  2.6597E-02   -124.26  5.8281E-01     55.74
  110.00     10.00    -18.47     5.92     5.94      0.0000    -86.55 LINEAR  3.4774E-02   -115.38  5.7661E-01     64.62
  115.00     10.00    -16.75     5.80     5.82      0.0000    -85.74 LINEAR  4.2359E-02   -104.04  5.6844E-01     75.96
  120.00     10.00    -15.45     5.64     5.68      0.0000    -84.96 LINEAR  4.9210E-02    -90.33  5.5816E-01     89.67
  125.00     10.00    -14.46     5.45     5.49      0.0000    -84.22 LINEAR  5.5190E-02    -74.33  5.4570E-01    105.67
  130.00     10.00    -13.70     5.21     5.26      0.0000    -83.53 LINEAR  6.0183E-02    -56.13  5.3099E-01    123.87
  135.00     10.00    -13.16     4.93     4.99      0.0000    -82.89 LINEAR  6.4093E-02    -35.86  5.1405E-01    144.14
  140.00     10.00    -12.79     4.60     4.68      0.0000    -82.31 LINEAR  6.6858E-02    -13.64  4.9497E-01    166.36
  145.00     10.00    -12.59     4.22     4.31      0.0000    -81.78 LINEAR  6.8451E-02     10.38  4.7391E-01   -169.62
  150.00     10.00    -12.53     3.79     3.89      0.0000    -81.32 LINEAR  6.8886E-02     36.04  4.5111E-01   -143.96
  155.00     10.00    -12.62     3.31     3.42      0.0000    -80.92 LINEAR  6.8218E-02     63.16  4.2688E-01   -116.84
  160.00     10.00    -12.83     2.78     2.90      0.0000    -80.59 LINEAR  6.6538E-02     91.56  4.0158E-01    -88.44
  165.00     10.00    -13.17     2.20     2.33      0.0000    -80.33 LINEAR  6.3973E-02    121.02  3.7561E-01    -58.98
  170.00     10.00    -13.63     1.57     1.70      0.0000    -80.15 LINEAR  6.0672E-02    151.36  3.4939E-01    -28.64
  175.00     10.00    -14.21     0.90     1.03      0.0000    -80.04 LINEAR  5.6803E-02   -177.66  3.2337E-01      2.34
  180.00     10.00    -14.88     0.19     0.32      0.0000    -80.00 LINEAR  5.2542E-02   -146.25  2.9798E-01     33.75
    0.00     20.00     -9.00    -0.22     0.32      0.0000     70.00 LINEAR  1.0349E-01     33.75  2.8433E-01     33.75
    5.00     20.00     -8.35     0.46     1.00      0.0000     70.07 LINEAR  1.1146E-01      3.77  3.0739E-01      3.77
   10.00     20.00     -7.81     1.10     1.63      0.0000     70.28 LINEAR  1.1861E-01    -25.81  3.3091E-01    -25.81
   15.00     20.00     -7.38     1.70     2.20      0.0000     70.63 LINEAR  1.2463E-01    -54.78  3.5449E-01    -54.78
   20.00     20.00     -7.07     2.25     2.73      0.0000     71.12 LINEAR  1.2920E-01    -82.93  3.7775E-01    -82.93
   25.00     20.00     -6.88     2.75     3.20      0.0000     71.74 LINEAR  1.3205E-01   -110.07  4.0032E-01   -110.07
   30.00     20.00     -6.82     3.21     3.62      0.0000     72.50 LINEAR  1.3297E-01   -135.99  4.2186E-01   -135.99
   35.00     20.00     -6.90     3.62     3.99      0.0000     73.40 LINEAR  1.3180E-01   -160.52  4.4206E-01   -160.52
   40.00     20.00     -7.12     3.97     4.30      0.0000     74.42 LINEAR  1.2844E-01    176.51  4.6067E-01    176.51
   45.00     20.00     -7.50     4.29     4.56      0.0000     75.57 LINEAR  1.2289E-01    155.25  4.7750E-01    155.25
   50.00     20.00     -8.06     4.55     4.78      0.0000     76.83 LINEAR  1.1520E-01    135.85  4.9242E-01    135.85
   55.00     20.00     -8.83     4.78     4.96      0.0000     78.21 LINEAR  1.0550E-01    118.44  5.0537E-01    118.44
   60.00     20.00     -9.83     4.96     5.11      0.0000     79.69 LINEAR  9.3967E-02    103.13  5.1634E-01    103.13
   65.00     20.00    -11.14     5.12     5.22      0.0000     81.26 LINEAR  8.0816E-02     90.00  5.2539E-01     90.00
   70.00     20.00    -12.86     5.23     5.30      0.0000     82.90 LINEAR  6.6300E-02     79.15  5.3259E-01     79.15
   75.00     20.00    -15.20     5.32     5.36      0.0000     84.62 LINEAR  5.0686E-02     70.65  5.3805E-01     70.65
   80.00     20.00    -18.60     5.38     5.40      0.0000     86.38 LINEAR  3.4248E-02     64.54  5.4187E-01     64.54
   85.00     20.00    -24.55     5.42     5.42      0.0000     88.18 LINEAR  1.7261E-02     60.85  5.4412E-01     60.85
   90.00     20.00   -999.99     5.43     5.43      0.0000    -90.00 LINEAR  1.0121E-12   -120.38  5.4487E-01     59.62
   95.00     20.00    -24.55     5.42     5.42      0.0000    -88.18 LINEAR  1.7261E-02   -119.15  5.4412E-01     60.85
  100.00     20.00    -18.60     5.38     5.40      0.0000    -86.38 LINEAR  3.4248E-02   -115.46  5.4187E-01     64.54
  105.00     20.00    -15.20     5.32     5.36      0.0000    -84.62 LINEAR  5.0686E-02   -109.35  5.3805E-01     70.65
  110.00     20.00    -12.86     5.23     5.30      0.0000    -82.90 LINEAR  6.6300E-02   -100.85  5.3259E-01     79.15
  115.00     20.00    -11.14     5.12     5.22      0.0000    -81.26 LINEAR  8.0816E-02    -90.00  5.2539E-01     90.00
  120.00     20.00     -9.83     4.96     5.11      0.0000    -79.69 LINEAR  9.3967E-02    -76.87  5.1634E-01    103.13
  125.00     20.00     -8.83     4.78     4.96      0.0000    -78.21 LINEAR  1.0550E-01    -61.56  5.0537E-01    118.44
  130.00     20.00     -8.06     4.55     4.78      0.0000    -76.83 LINEAR  1.1520E-01    -44.15  4.9242E-01    135.85
  135.00     20.00     -7.50     4.29     4.56      0.0000    -75.57 LINEAR  1.2289E-01    -24.75  4.7750E-01    155.25
  140.00     20.00     -7.12     3.97     4.30      0.0000    -74.42 LINEAR  1.2844E-01     -3.49  4.6067E-01    176.51
  145.00     20.00     -6.90     3.62     3.99      0.0000    -73.40 LINEAR  1.3180E-01     19.48  4.4206E-01   -160.52
  150.00     20.00     -6.82     3.21     3.62      0.0000    -72.50 LINEAR  1.3297E-01     44.01  4.2186E-01   -135.99
  155.00     20.00     -6.88     2.75     3.20      0.0000    -71.74 LINEAR  1.3205E-01     69.93  4.0032E-01   -110.07
  160.00     20.00     -7.07     2.25     2.73      0.0000    -71.12 LINEAR  1.2920E-01     97.07  3.7775E-01    -82.93
  165.00     20.00     -7.38     1.70     2.20      0.0000    -70.63 LINEAR  1.2463E-01    125.22  3.5449E-01    -54.78
  170.00     20.00     -7.81     1.10     1.63      0.0000    -70.28 LINEAR  1.1861E-01    154.19  3.3091E-01    -25.81
  175.00     20.00     -8.35     0.46     1.00      0.0000    -70.07 LINEAR  1.1146E-01   -176.23  3.0739E-01      3.77
  180.00     20.00     -9.00    -0.22     0.32      0.0000    -70.00 LINEAR  1.0349E-01   -146.25  2.8433E-01     33.75
    0.00     30.00     -5.70    -0.93     0.32      0.0000     60.00 LINEAR  1.5129E-01     33.75  2.6204E-01     33.75
    5.00     30.00     -5.11    -0.30     0.94      0.0000     60.09 LINEAR  1.6193E-01      6.11  2.8154E-01      6.11
   10.00     30.00     -4.62     0.29     1.50      0.0000     60.38 LINEAR  1.7129E-01    -21.17  3.0126E-01    -21.17
   15.00     30.00     -4.24     0.83     2.01      0.0000     60.85 LINEAR  1.7894E-01    -47.92  3.2087E-01    -47.92
   20.00     30.00     -3.97     1.34     2.46      0.0000     61.52 LINEAR  1.8450E-01    -73.92  3.4008E-01    -73.92
   25.00     30.00     -3.83     1.80     2.85      0.0000     62.38 LINEAR  1.8763E-01    -98.99  3.5857E-01    -98.99
   30.00     30.00     -3.81     2.21     3.18      0.0000     63.43 LINEAR  1.8805E-01   -122.95  3.7610E-01   -122.95
   35.00     30.00     -3.92     2.58     3.46      0.0000     64.69 LINEAR  1.8560E-01   -145.64  3.9244E-01   -145.64
   40.00     30.00     -4.18     2.91     3.68      0.0000     66.14 LINEAR  1.8019E-01   -166.89  4.0741E-01   -166.89
   45.00     30.00     -4.59     3.19     3.86      0.0000     67.79 LINEAR  1.7183E-01    173.43  4.2089E-01    173.43
   50.00     30.00     -5.18     3.43     3.99      0.0000     69.64 LINEAR  1.6061E-01    155.48  4.3279E-01    155.48
   55.00     30.00     -5.96     3.64     4.09      0.0000     71.68 LINEAR  1.4673E-01    139.35  4.4308E-01    139.35
   60.00     30.00     -6.99     3.81     4.15      0.0000     73.90 LINEAR  1.3042E-01    125.16  4.5179E-01    125.16
   65.00     30.00     -8.31     3.94     4.19      0.0000     76.29 LINEAR  1.1199E-01    113.01  4.5897E-01    113.01
   70.00     30.00    -10.04     4.05     4.22      0.0000     78.83 LINEAR  9.1758E-02    102.95  4.6468E-01    102.95
   75.00     30.00    -12.38     4.13     4.23      0.0000     81.50 LINEAR  7.0083E-02     95.07  4.6900E-01     95.07
   80.00     30.00    -15.79     4.19     4.23      0.0000     84.27 LINEAR  4.7323E-02     89.41  4.7203E-01     89.41
   85.00     30.00    -21.75     4.22     4.23      0.0000     87.12 LINEAR  2.3842E-02     85.99  4.7381E-01     85.99
   90.00     30.00   -999.99     4.23     4.23      0.0000    -90.00 LINEAR  1.3978E-12    -95.15  4.7440E-01     84.85
   95.00     30.00    -21.75     4.22     4.23      0.0000    -87.12 LINEAR  2.3842E-02    -94.01  4.7381E-01     85.99
  100.00     30.00    -15.79     4.19     4.23      0.0000    -84.27 LINEAR  4.7323E-02    -90.59  4.7203E-01     89.41
  105.00     30.00    -12.38     4.13     4.23      0.0000    -81.50 LINEAR  7.0083E-02    -84.93  4.6900E-01     95.07
  110.00     30.00    -10.04     4.05     4.22      0.0000    -78.83 LINEAR  9.1758E-02    -77.05  4.6468E-01    102.95
  115.00     30.00     -8.31     3.94     4.19      0.0000    -76.29 LINEAR  1.1199E-01    -66.99  4.5897E-01    113.01
  120.00     30.00     -6.99     3.81     4.15      0.0000    -73.90 LINEAR  1.3042E-01    -54.84  4.5179E-01    125.16
  125.00     30.00     -5.96     3.64     4.09      0.0000    -71.68 LINEAR  1.4673E-01    -40.65  4.4308E-01    139.35
  130.00     30.00     -5.18     3.43     3.99      0.0000    -69.64 LINEAR  1.6061E-01    -24.52  4.3279E-01    155.48
  135.00     30.00     -4.59     3.19     3.86      0.0000    -67.79 LINEAR  1.7183E-01     -6.57  4.2089E-01    173.43
  140.00     30.00     -4.18     2.91     3.68      0.0000    -66.14 LINEAR  1.8019E-01     13.11  4.0741E-01   -166.89
  145.00     30.00     -3.92     2.58     3.46      0.0000    -64.69 LINEAR  1.8560E-01     34.36  3.9244E-01   -145.64
  150.00     30.00     -3.81     2.21     3.18      0.0000    -63.43 LINEAR  1.8805E-01     57.05  3.7610E-01   -122.95
  155.00     30.00     -3.83     1.80     2.85      0.0000    -62.38 LINEAR  1.8763E-01     81.01  3.5857E-01    -98.99
  160.00     30.00     -3.97     1.34     2.46      0.0000    -61.52 LINEAR  1.8450E-01    106.08  3.4008E-01    -73.92
  165.00     30.00     -4.24     0.83     2.01      0.0000    -60.85 LINEAR  1.7894E-01    132.08  3.2087E-01    -47.92
  170.00     30.00     -4.62     0.29     1.50      0.0000    -60.38 LINEAR  1.7129E-01    158.83  3.0126E-01    -21.17
  175.00     30.00     -5.11    -0.30     0.94      0.0000    -60.09 LINEAR  1.6193E-01   -173.89  2.8154E-01      6.11
  180.00     30.00     -5.70    -0.93     0.32      0.0000    -60.00 LINEAR  1.5129E-01   -146.25  2.6204E-01     33.75
    0.00     40.00     -3.52    -1.99     0.32      0.0000     50.00 LINEAR  1.9449E-01     33.75  2.3179E-01     33.75
    5.00     40.00     -3.00    -1.44     0.86      0.0000     50.11 LINEAR  2.0642E-01      9.29  2.4695E-01      9.29
   10.00     40.00     -2.58    -0.93     1.34      0.0000     50.43 LINEAR  2.1657E-01    -14.88  2.6208E-01    -14.88
   15.00     40.00     -2.27    -0.45     1.75      0.0000     50.97 LINEAR  2.2448E-01    -38.59  2.7696E-01    -38.59
   20.00     40.00     -2.07    -0.01     2.09      0.0000     51.74 LINEAR  2.2972E-01    -61.65  2.9134E-01    -61.65
   25.00     40.00     -1.98     0.39     2.38      0.0000     52.75 LINEAR  2.3198E-01    -83.91  3.0504E-01    -83.91
   30.00     40.00     -2.02     0.75     2.59      0.0000     53.99 LINEAR  2.3099E-01   -105.21  3.1787E-01   -105.21
   35.00     40.00     -2.19     1.07     2.75      0.0000     55.50 LINEAR  2.2662E-01   -125.38  3.2970E-01   -125.38
   40.00     40.00     -2.49     1.35     2.85      0.0000     57.27 LINEAR  2.1882E-01   -144.28  3.4043E-01   -144.28
   45.00     40.00     -2.95     1.59     2.90      0.0000     59.32 LINEAR  2.0766E-01   -161.79  3.4999E-01   -161.79
   50.00     40.00     -3.57     1.79     2.90      0.0000     61.66 LINEAR  1.9328E-01   -177.78  3.5835E-01   -177.78
   55.00     40.00     -4.39     1.96     2.87      0.0000     64.30 LINEAR  1.7593E-01    167.85  3.6554E-01    167.85
   60.00     40.00     -5.44     2.11     2.81      0.0000     67.24 LINEAR  1.5589E-01    155.21  3.7157E-01    155.21
   65.00     40.00     -6.78     2.22     2.74      0.0000     70.47 LINEAR  1.3352E-01    144.37  3.7651E-01    144.37
   70.00     40.00     -8.53     2.31     2.66      0.0000     73.99 LINEAR  1.0918E-01    135.41  3.8042E-01    135.41
   75.00     40.00    -10.89     2.38     2.58      0.0000     77.75 LINEAR  8.3259E-02    128.37  3.8337E-01    128.37
   80.00     40.00    -14.31     2.43     2.52      0.0000     81.71 LINEAR  5.6160E-02    123.32  3.8543E-01    123.32
   85.00     40.00    -20.27     2.45     2.48      0.0000     85.82 LINEAR  2.8276E-02    120.28  3.8664E-01    120.28
   90.00     40.00   -999.99     2.46     2.46      0.0000    -90.00 LINEAR  1.6574E-12    -60.74  3.8704E-01    119.26
   95.00     40.00    -20.27     2.45     2.48      0.0000    -85.82 LINEAR  2.8276E-02    -59.72  3.8664E-01    120.28
  100.00     40.00    -14.31     2.43     2.52      0.0000    -81.71 LINEAR  5.6160E-02    -56.68  3.8543E-01    123.32
  105.00     40.00    -10.89     2.38     2.58      0.0000    -77.75 LINEAR  8.3259E-02    -51.63  3.8337E-01    128.37
  110.00     40.00     -8.53     2.31     2.66      0.0000    -73.99 LINEAR  1.0918E-01    -44.59  3.8042E-01    135.41
  115.00     40.00     -6.78     2.22     2.74      0.0000    -70.47 LINEAR  1.3352E-01    -35.63  3.7651E-01    144.37
  120.00     40.00     -5.44     2.11     2.81      0.0000    -67.24 LINEAR  1.5589E-01    -24.79  3.7157E-01    155.21
  125.00     40.00     -4.39     1.96     2.87      0.0000    -64.30 LINEAR  1.7593E-01    -12.15  3.6554E-01    167.85
  130.00     40.00     -3.57     1.79     2.90      0.0000    -61.66 LINEAR  1.9328E-01      2.22  3.5835E-01   -177.78
  135.00     40.00     -2.95     1.59     2.90      0.0000    -59.32 LINEAR  2.0766E-01     18.21  3.4999E-01   -161.79
  140.00     40.00     -2.49     1.35     2.85      0.0000    -57.27 LINEAR  2.1882E-01     35.72  3.4043E-01   -144.28
  145.00     40.00     -2.19     1.07     2.75      0.0000    -55.50 LINEAR  2.2662E-01     54.62  3.2970E-01   -125.38
  150.00     40.00     -2.02     0.75     2.59      0.0000    -53.99 LINEAR  2.3099E-01     74.79  3.1787E-01   -105.21
  155.00     40.00     -1.98     0.39     2.38      0.0000    -52.75 LINEAR  2.3198E-01     96.09  3.0504E-01    -83.91
  160.00     40.00     -2.07    -0.01     2.09      0.0000    -51.74 LINEAR  2.2972E-01    118.35  2.9134E-01    -61.65
  165.00     40.00     -2.27    -0.45     1.75      0.0000    -50.97 LINEAR  2.2448E-01    141.41  2.7696E-01    -38.59
  170.00     40.00     -2.58    -0.93     1.34      0.0000    -50.43 LINEAR  2.1657E-01    165.12  2.6208E-01    -14.88
  175.00     40.00     -3.00    -1.44     0.86      0.0000    -50.11 LINEAR  2.0642E-01   -170.71  2.4695E-01      9.29
  180.00     40.00     -3.52    -1.99     0.32      0.0000    -50.00 LINEAR  1.9449E-01   -146.25  2.3179E-01     33.75
    0.00     50.00     -1.99    -3.52     0.32      0.0000     40.00 LINEAR  2.3179E-01     33.75  1.9449E-01     33.75
    5.00     50.00     -1.57    -3.06     0.76      0.0000     40.11 LINEAR  2.4346E-01     13.21  2.0507E-01     13.21
   10.00     50.00     -1.24    -2.63     1.13      0.0000     40.43 LINEAR  2.5285E-01     -7.11  2.1544E-01     -7.11
   15.00     50.00     -1.01    -2.23     1.43      0.0000     40.98 LINEAR  2.5951E-01    -27.06  2.2544E-01    -27.06
   20.00     50.00     -0.89    -1.87     1.66      0.0000     41.76 LINEAR  2.6310E-01    -46.49  2.3494E-01    -46.49
   25.00     50.00     -0.88    -1.55     1.81      0.0000     42.79 LINEAR  2.6334E-01    -65.27  2.4381E-01    -65.27
   30.00     50.00     -0.99    -1.27     1.88      0.0000     44.10 LINEAR  2.6005E-01    -83.24  2.5196E-01    -83.24
   35.00     50.00     -1.23    -1.02     1.89      0.0000     45.69 LINEAR  2.5317E-01   -100.28  2.5934E-01   -100.28
   40.00     50.00     -1.59    -0.80     1.83      0.0000     47.61 LINEAR  2.4274E-01   -116.27  2.6589E-01   -116.27
   45.00     50.00     -2.10    -0.61     1.72      0.0000     49.88 LINEAR  2.2889E-01   -131.09  2.7162E-01   -131.09
   50.00     50.00     -2.77    -0.46     1.55      0.0000     52.55 LINEAR  2.1183E-01   -144.63  2.7653E-01   -144.63
   55.00     50.00     -3.63    -0.33     1.33      0.0000     55.64 LINEAR  1.9185E-01   -156.81  2.8066E-01   -156.81
   60.00     50.00     -4.72    -0.23     1.09      0.0000     59.21 LINEAR  1.6927E-01   -167.53  2.8407E-01   -167.53
   65.00     50.00     -6.10    -0.14     0.84      0.0000     63.27 LINEAR  1.4445E-01   -176.72  2.8681E-01   -176.72
   70.00     50.00     -7.87    -0.08     0.59      0.0000     67.82 LINEAR  1.1777E-01    175.67  2.8894E-01    175.67
   75.00     50.00    -10.25    -0.03     0.36      0.0000     72.86 LINEAR  8.9612E-02    169.70  2.9052E-01    169.70
   80.00     50.00    -13.68     0.00     0.18      0.0000     78.31 LINEAR  6.0349E-02    165.41  2.9162E-01    165.41
   85.00     50.00    -19.65     0.02     0.07      0.0000     84.07 LINEAR  3.0356E-02    162.82  2.9225E-01    162.82
   90.00     50.00   -999.99     0.03     0.03      0.0000    -90.00 LINEAR  1.7788E-12    -18.04  2.9246E-01    161.96
   95.00     50.00    -19.65     0.02     0.07      0.0000    -84.07 LINEAR  3.0356E-02    -17.18  2.9225E-01    162.82
  100.00     50.00    -13.68     0.00     0.18      0.0000    -78.31 LINEAR  6.0349E-02    -14.59  2.9162E-01    165.41
  105.00     50.00    -10.25    -0.03     0.36      0.0000    -72.86 LINEAR  8.9612E-02    -10.30  2.9052E-01    169.70
  110.00     50.00     -7.87    -0.08     0.59      0.0000    -67.82 LINEAR  1.1777E-01     -4.33  2.8894E-01    175.67
  115.00     50.00     -6.10    -0.14     0.84      0.0000    -63.27 LINEAR  1.4445E-01      3.28  2.8681E-01   -176.72
  120.00     50.00     -4.72    -0.23     1.09      0.0000    -59.21 LINEAR  1.6927E-01     12.47  2.8407E-01   -167.53
  125.00     50.00     -3.63    -0.33     1.33      0.0000    -55.64 LINEAR  1.9185E-01     23.19  2.8066E-01   -156.81
  130.00     50.00     -2.77    -0.46     1.55      0.0000    -52.55 LINEAR  2.1183E-01     35.37  2.7653E-01   -144.63
  135.00     50.00     -2.10    -0.61     1.72      0.0000    -49.88 LINEAR  2.2889E-01     48.91  2.7162E-01   -131.09
  140.00     50.00     -1.59    -0.80     1.83      0.0000    -47.61 LINEAR  2.4274E-01     63.73  2.6589E-01   -116.27
  145.00     50.00     -1.23    -1.02     1.89      0.0000    -45.69 LINEAR  2.5317E-01     79.72  2.5934E-01   -100.28
  150.00     50.00     -0.99    -1.27     1.88      0.0000    -44.10 LINEAR  2.6005E-01     96.76  2.5196E-01    -83.24
  155.00     50.00     -0.88    -1.55     1.81      0.0000    -42.79 LINEAR  2.6334E-01    114.73  2.4381E-01    -65.27
  160.00     50.00     -0.89    -1.87     1.66      0.0000    -41.76 LINEAR  2.6310E-01    133.51  2.3494E-01    -46.49
  165.00     50.00     -1.01    -2.23     1.43      0.0000    -40.98 LINEAR  2.5951E-01    152.94  2.2544E-01    -27.06
  170.00     50.00     -1.24    -2.63     1.13      0.0000    -40.43 LINEAR  2.5285E-01    172.89  2.1544E-01     -7.11
  175.00     50.00     -1.57    -3.06     0.76      0.0000    -40.11 LINEAR  2.4346E-01   -166.79  2.0507E-01     13.21
  180.00     50.00     -1.99    -3.52     0.32      0.0000    -40.00 LINEAR  2.3179E-01   -146.25  1.9449E-01     33.75
    0.00     60.00     -0.93    -5.70     0.32      0.0000     30.00 LINEAR  2.6204E-01     33.75  1.5129E-01     33.75
    5.00     60.00     -0.60    -5.34     0.65      0.0000     30.09 LINEAR  2.7194E-01     17.76  1.5760E-01     17.76
   10.00     60.00     -0.38    -5.02     0.90      0.0000     30.38 LINEAR  2.7909E-01      1.92  1.6362E-01      1.92
   15.00     60.00     -0.25    -4.72     1.07      0.0000     30.87 LINEAR  2.8318E-01    -13.67  1.6926E-01    -13.67
   20.00     60.00     -0.23    -4.46     1.16      0.0000     31.57 LINEAR  2.8394E-01    -28.87  1.7445E-01    -28.87
   25.00     60.00     -0.31    -4.23     1.17      0.0000     32.50 LINEAR  2.8121E-01    -43.58  1.7914E-01    -43.58
   30.00     60.00     -0.51    -4.03     1.09      0.0000     33.69 LINEAR  2.7495E-01    -57.67  1.8330E-01    -57.67
   35.00     60.00     -0.82    -3.86     0.93      0.0000     35.18 LINEAR  2.6520E-01    -71.06  1.8692E-01    -71.06
   40.00     60.00     -1.26    -3.72     0.69      0.0000     37.00 LINEAR  2.5209E-01    -83.63  1.8999E-01    -83.63
   45.00     60.00     -1.84    -3.60     0.38      0.0000     39.23 LINEAR  2.3583E-01    -95.29  1.9256E-01    -95.29
   50.00     60.00     -2.58    -3.51    -0.01      0.0000     41.93 LINEAR  2.1671E-01   -105.96  1.9464E-01   -105.96
   55.00     60.00     -3.49    -3.44    -0.45      0.0000     45.19 LINEAR  1.9502E-01   -115.57  1.9630E-01   -115.57
   60.00     60.00     -4.63    -3.38    -0.95      0.0000     49.11 LINEAR  1.7112E-01   -124.03  1.9759E-01   -124.03
   65.00     60.00     -6.05    -3.34    -1.47      0.0000     53.80 LINEAR  1.4534E-01   -131.30  1.9856E-01   -131.30
   70.00     60.00     -7.85    -3.31    -2.00      0.0000     59.36 LINEAR  1.1804E-01   -137.31  1.9926E-01   -137.31
   75.00     60.00    -10.25    -3.28    -2.49      0.0000     65.85 LINEAR  8.9547E-02   -142.03  1.9975E-01   -142.03
   80.00     60.00    -13.71    -3.27    -2.89      0.0000     73.26 LINEAR  6.0175E-02   -145.43  2.0007E-01   -145.43
   85.00     60.00    -19.69    -3.26    -3.16      0.0000     81.42 LINEAR  3.0229E-02   -147.48  2.0025E-01   -147.48
   90.00     60.00   -999.99    -3.26    -3.26      0.0000    -90.00 LINEAR  1.7706E-12     31.84  2.0031E-01   -148.16
   95.00     60.00    -19.69    -3.26    -3.16      0.0000    -81.42 LINEAR  3.0229E-02     32.52  2.0025E-01   -147.48
  100.00     60.00    -13.71    -3.27    -2.89      0.0000    -73.26 LINEAR  6.0175E-02     34.57  2.0007E-01   -145.43
  105.00     60.00    -10.25    -3.28    -2.49      0.0000    -65.85 LINEAR  8.9547E-02     37.97  1.9975E-01   -142.03
  110.00     60.00     -7.85    -3.31    -2.00      0.0000    -59.36 LINEAR  1.1804E-01     42.69  1.9926E-01   -137.31
  115.00     60.00     -6.05    -3.34    -1.47      0.0000    -53.80 LINEAR  1.4534E-01     48.70  1.9856E-01   -131.30
  120.00     60.00     -4.63    -3.38    -0.95      0.0000    -49.11 LINEAR  1.7112E-01     55.97  1.9759E-01   -124.03
  125.00     60.00     -3.49    -3.44    -0.45      0.0000    -45.19 LINEAR  1.9502E-01     64.43  1.9630E-01   -115.57
  130.00     60.00     -2.58    -3.51    -0.01      0.0000    -41.93 LINEAR  2.1671E-01     74.04  1.9464E-01   -105.96
  135.00     60.00     -1.84    -3.60     0.38      0.0000    -39.23 LINEAR  2.3583E-01     84.71  1.9256E-01    -95.29
  140.00     60.00     -1.26    -3.72     0.69      0.0000    -37.00 LINEAR  2.5209E-01     96.37  1.8999E-01    -83.63
  145.00     60.00     -0.82    -3.86     0.93      0.0000    -35.18 LINEAR  2.6520E-01    108.94  1.8692E-01    -71.06
  150.00     60.00     -0.51    -4.03     1.09      0.0000    -33.69 LINEAR  2.7495E-01    122.33  1.8330E-01    -57.67
  155.00     60.00     -0.31    -4.23     1.17      0.0000    -32.50 LINEAR  2.8121E-01    136.42  1.7914E-01    -43.58
  160.00     60.00     -0.23    -4.46     1.16      0.0000    -31.57 LINEAR  2.8394E-01    151.13  1.7445E-01    -28.87
  165.00     60.00     -0.25    -4.72     1.07      0.0000    -30.87 LINEAR  2.8318E-01    166.33  1.6926E-01    -13.67
  170.00     60.00     -0.38    -5.02     0.90      0.0000    -30.38 LINEAR  2.7909E-01   -178.08  1.6362E-01      1.92
  175.00     60.00     -0.60    -5.34     0.65      0.0000    -30.09 LINEAR  2.7194E-01   -162.24  1.5760E-01     17.76
  180.00     60.00     -0.93    -5.70     0.32      0.0000    -30.00 LINEAR  2.6204E-01   -146.25  1.5129E-01     33.75
    0.00     70.00     -0.22    -9.00     0.32      0.0000     20.00 LINEAR  2.8433E-01     33.75  1.0349E-01     33.75
    5.00     70.00     -0.01    -8.76     0.53      0.0000     20.07 LINEAR  2.9115E-01     22.80  1.0637E-01     22.80
   10.00     70.00      0.10    -8.55     0.66      0.0000     20.28 LINEAR  2.9490E-01     11.92  1.0899E-01     11.92
   15.00     70.00      0.11    -8.36     0.69      0.0000     20.65 LINEAR  2.9539E-01      1.20  1.1131E-01      1.20
   20.00     70.00      0.03    -8.21     0.64      0.0000     21.17 LINEAR  2.9252E-01     -9.29  1.1330E-01     -9.29
   25.00     70.00     -0.16    -8.08     0.49      0.0000     21.88 LINEAR  2.8627E-01    -19.46  1.1496E-01    -19.46
   30.00     70.00     -0.45    -7.98     0.25      0.0000     22.80 LINEAR  2.7672E-01    -29.22  1.1630E-01    -29.22
   35.00     70.00     -0.86    -7.91    -0.08      0.0000     23.96 LINEAR  2.6406E-01    -38.51  1.1733E-01    -38.51
   40.00     70.00     -1.39    -7.85    -0.50      0.0000     25.41 LINEAR  2.4850E-01    -47.26  1.1807E-01    -47.26
   45.00     70.00     -2.05    -7.82    -1.03      0.0000     27.24 LINEAR  2.3033E-01    -55.38  1.1856E-01    -55.38
   50.00     70.00     -2.85    -7.79    -1.65      0.0000     29.52 LINEAR  2.0987E-01    -62.83  1.1884E-01    -62.83
   55.00     70.00     -3.84    -7.79    -2.37      0.0000     32.40 LINEAR  1.8744E-01    -69.55  1.1894E-01    -69.55
   60.00     70.00     -5.03    -7.79    -3.18      0.0000     36.05 LINEAR  1.6338E-01    -75.47  1.1893E-01    -75.47
   65.00     70.00     -6.50    -7.80    -4.09      0.0000     40.74 LINEAR  1.3798E-01    -80.56  1.1883E-01    -80.56
   70.00     70.00     -8.35    -7.81    -5.06      0.0000     46.78 LINEAR  1.1153E-01    -84.78  1.1869E-01    -84.78
   75.00     70.00    -10.78    -7.82    -6.04      0.0000     54.58 LINEAR  8.4295E-02    -88.10  1.1854E-01    -88.10
   80.00     70.00    -14.25    -7.83    -6.94      0.0000     64.49 LINEAR  5.6495E-02    -90.49  1.1841E-01    -90.49
   85.00     70.00    -20.25    -7.83    -7.59      0.0000     76.53 LINEAR  2.8335E-02    -91.92  1.1833E-01    -91.92
   90.00     70.00   -999.99    -7.83    -7.83      0.0000    -90.00 LINEAR  1.6587E-12     87.59  1.1830E-01    -92.41
   95.00     70.00    -20.25    -7.83    -7.59      0.0000    -76.53 LINEAR  2.8335E-02     88.08  1.1833E-01    -91.92
  100.00     70.00    -14.25    -7.83    -6.94      0.0000    -64.49 LINEAR  5.6495E-02     89.51  1.1841E-01    -90.49
  105.00     70.00    -10.78    -7.82    -6.04      0.0000    -54.58 LINEAR  8.4295E-02     91.90  1.1854E-01    -88.10
  110.00     70.00     -8.35    -7.81    -5.06      0.0000    -46.78 LINEAR  1.1153E-01     95.22  1.1869E-01    -84.78
  115.00     70.00     -6.50    -7.80    -4.09      0.0000    -40.74 LINEAR  1.3798E-01     99.44  1.1883E-01    -80.56
  120.00     70.00     -5.03    -7.79    -3.18      0.0000    -36.05 LINEAR  1.6338E-01    104.53  1.1893E-01    -75.47
  125.00     70.00     -3.84    -7.79    -2.37      0.0000    -32.40 LINEAR  1.8744E-01    110.45  1.1894E-01    -69.55
  130.00     70.00     -2.85    -7.79    -1.65      0.0000    -29.52 LINEAR  2.0987E-01    117.17  1.1884E-01    -62.83
  135.00     70.00     -2.05    -7.82    -1.03      0.0000    -27.24 LINEAR  2.3033E-01    124.62  1.1856E-01    -55.38
  140.00     70.00     -1.39    -7.85    -0.50      0.0000    -25.41 LINEAR  2.4850E-01    132.74  1.1807E-01    -47.26
  145.00     70.00     -0.86    -7.91    -0.08      0.0000    -23.96 LINEAR  2.6406E-01    141.49  1.1733E-01    -38.51
  150.00     70.00     -0.45    -7.98     0.25      0.0000    -22.80 LINEAR  2.7672E-01    150.78  1.1630E-01    -29.22
  155.00     70.00     -0.16    -8.08     0.49      0.0000    -21.88 LINEAR  2.8627E-01    160.54  1.1496E-01    -19.46
  160.00     70.00      0.03    -8.21     0.64      0.0000    -21.17 LINEAR  2.9252E-01    170.71  1.1330E-01     -9.29
  165.00     70.00      0.11    -8.36     0.69      0.0000    -20.65 LINEAR  2.9539E-01   -178.80  1.1131E-01      1.20
  170.00     70.00      0.10    -8.55     0.66      0.0000    -20.28 LINEAR  2.9490E-01   -168.08  1.0899E-01     11.92
  175.00     70.00     -0.01    -8.76     0.53      0.0000    -20.07 LINEAR  2.9115E-01   -157.20  1.0637E-01     22.80
  180.00     70.00     -0.22    -9.00     0.32      0.0000    -20.00 LINEAR  2.8433E-01   -146.25  1.0349E-01     33.75
    0.00     80.00      0.19   -14.88     0.32      0.0000     10.00 LINEAR  2.9798E-01     33.75  5.2542E-02     33.75
    5.00     80.00      0.27   -14.77     0.41      0.0000     10.04 LINEAR  3.0080E-01     28.17  5.3242E-02     28.17
   10.00     80.00      0.26   -14.68     0.40      0.0000     10.15 LINEAR  3.0041E-01     22.61  5.3788E-02     22.61
   15.00     80.00      0.15   -14.62     0.30      0.0000     10.35 LINEAR  2.9677E-01     17.09  5.4175E-02     17.09
   20.00     80.00     -0.05   -14.58     0.10      0.0000     10.63 LINEAR  2.8994E-01     11.67  5.4406E-02     11.67
   25.00     80.00     -0.35   -14.57    -0.19      0.0000     11.01 LINEAR  2.8007E-01      6.39  5.4489E-02      6.39
   30.00     80.00     -0.75   -14.58    -0.58      0.0000     11.51 LINEAR  2.6737E-01      1.30  5.4438E-02      1.30
   35.00     80.00     -1.26   -14.60    -1.06      0.0000     12.15 LINEAR  2.5212E-01     -3.57  5.4270E-02     -3.57
   40.00     80.00     -1.89   -14.64    -1.66      0.0000     12.96 LINEAR  2.3463E-01     -8.18  5.4006E-02     -8.18
   45.00     80.00     -2.64   -14.70    -2.37      0.0000     14.00 LINEAR  2.1523E-01    -12.47  5.3670E-02    -12.47
   50.00     80.00     -3.53   -14.76    -3.21      0.0000     15.34 LINEAR  1.9425E-01    -16.43  5.3286E-02    -16.43
   55.00     80.00     -4.58   -14.83    -4.19      0.0000     17.09 LINEAR  1.7201E-01    -20.00  5.2878E-02    -20.00
   60.00     80.00     -5.84   -14.90    -5.33      0.0000     19.43 LINEAR  1.4879E-01    -23.17  5.2470E-02    -23.17
   65.00     80.00     -7.37   -14.96    -6.67      0.0000     22.65 LINEAR  1.2484E-01    -25.89  5.2085E-02    -25.89
   70.00     80.00     -9.26   -15.02    -8.24      0.0000     27.27 LINEAR  1.0036E-01    -28.16  5.1741E-02    -28.16
   75.00     80.00    -11.73   -15.07   -10.08      0.0000     34.27 LINEAR  7.5529E-02    -29.95  5.1456E-02    -29.95
   80.00     80.00    -15.23   -15.10   -12.16      0.0000     45.44 LINEAR  5.0464E-02    -31.23  5.1242E-02    -31.23
   85.00     80.00    -21.24   -15.12   -14.17      0.0000     63.70 LINEAR  2.5263E-02    -32.01  5.1110E-02    -32.01
   90.00     80.00   -999.99   -15.13   -15.13      0.0000    -90.00 LINEAR  1.4780E-12    147.73  5.1066E-02    -32.27
   95.00     80.00    -21.24   -15.12   -14.17      0.0000    -63.70 LINEAR  2.5263E-02    147.99  5.1110E-02    -32.01
  100.00     80.00    -15.23   -15.10   -12.16      0.0000    -45.44 LINEAR  5.0464E-02    148.77  5.1242E-02    -31.23
  105.00     80.00    -11.73   -15.07   -10.08      0.0000    -34.27 LINEAR  7.5529E-02    150.05  5.1456E-02    -29.95
  110.00     80.00     -9.26   -15.02    -8.24      0.0000    -27.27 LINEAR  1.0036E-01    151.84  5.1741E-02    -28.16
  115.00     80.00     -7.37   -14.96    -6.67      0.0000    -22.65 LINEAR  1.2484E-01    154.11  5.2085E-02    -25.89
  120.00     80.00     -5.84   -14.90    -5.33      0.0000    -19.43 LINEAR  1.4879E-01    156.83  5.2470E-02    -23.17
  125.00     80.00     -4.58   -14.83    -4.19      0.0000    -17.09 LINEAR  1.7201E-01    160.00  5.2878E-02    -20.00
  130.00     80.00     -3.53   -14.76    -3.21      0.0000    -15.34 LINEAR  1.9425E-01    163.57  5.3286E-02    -16.43
  135.00     80.00     -2.64   -14.70    -2.37      0.0000    -14.00 LINEAR  2.1523E-01    167.53  5.3670E-02    -12.47
  140.00     80.00     -1.89   -14.64    -1.66      0.0000    -12.96 LINEAR  2.3463E-01    171.82  5.4006E-02     -8.18
  145.00     80.00     -1.26   -14.60    -1.06      0.0000    -12.15 LINEAR  2.5212E-01    176.43  5.4270E-02     -3.57
  150.00     80.00     -0.75   -14.58    -0.58      0.0000    -11.51 LINEAR  2.6737E-01   -178.70  5.4438E-02      1.30
  155.00     80.00     -0.35   -14.57    -0.19      0.0000    -11.01 LINEAR  2.8007E-01   -173.61  5.4489E-02      6.39
  160.00     80.00     -0.05   -14.58     0.10      0.0000    -10.63 LINEAR  2.8994E-01   -168.33  5.4406E-02     11.67
  165.00     80.00      0.15   -14.62     0.30      0.0000    -10.35 LINEAR  2.9677E-01   -162.91  5.4175E-02     17.09
  170.00     80.00      0.26   -14.68     0.40      0.0000    -10.15 LINEAR  3.0041E-01   -157.39  5.3788E-02     22.61
  175.00     80.00      0.27   -14.77     0.41      0.0000    -10.04 LINEAR  3.0080E-01   -151.83  5.3242E-02     28.17
  180.00     80.00      0.19   -14.88     0.32      0.0000    -10.00 LINEAR  2.9798E-01   -146.25  5.2542E-02     33.75
    0.00     90.00      0.32  -999.99     0.32      0.0000     -0.00 LINEAR  3.0258E-01     33.75  1.5442E-12   -146.25
    5.00     90.00      0.28  -999.99     0.28      0.0000     -0.00 LINEAR  3.0098E-01     33.73  1.5419E-12   -146.27
   10.00     90.00      0.14  -999.99     0.14      0.0000     -0.00 LINEAR  2.9622E-01     33.66  1.5351E-12   -146.34
   15.00     90.00     -0.09  -999.99    -0.09      0.0000     -0.00 LINEAR  2.8845E-01     33.55  1.5240E-12   -146.45
   20.00     90.00     -0.42  -999.99    -0.42      0.0000     -0.00 LINEAR  2.7787E-01     33.40  1.5091E-12   -146.60
   25.00     90.00     -0.84  -999.99    -0.84      0.0000     -0.00 LINEAR  2.6475E-01     33.22  1.4908E-12   -146.78
   30.00     90.00     -1.35  -999.99    -1.35      0.0000     -0.00 LINEAR  2.4944E-01     33.00  1.4699E-12   -147.00
   35.00     90.00     -1.97  -999.99    -1.97      0.0000     -0.00 LINEAR  2.3226E-01     32.76  1.4470E-12   -147.24
   40.00     90.00     -2.70  -999.99    -2.70      0.0000     -0.00 LINEAR  2.1359E-01     32.51  1.4230E-12   -147.49
   45.00     90.00     -3.55  -999.99    -3.55      0.0000     -0.00 LINEAR  1.9377E-01     32.24  1.3985E-12   -147.76
   50.00     90.00     -4.53  -999.99    -4.53      0.0000     -0.00 LINEAR  1.7310E-01     31.97  1.3743E-12   -148.03
   55.00     90.00     -5.66  -999.99    -5.66      0.0000     -0.00 LINEAR  1.5186E-01     31.70  1.3512E-12   -148.30
   60.00     90.00     -7.00  -999.99    -7.00      0.0000     -0.00 LINEAR  1.3028E-01     31.45  1.3298E-12   -148.55
   65.00     90.00     -8.58  -999.99    -8.58      0.0000     -0.00 LINEAR  1.0853E-01     31.22  1.3106E-12   -148.78
   70.00     90.00    -10.53  -999.99   -10.53      0.0000     -0.00 LINEAR  8.6741E-02     31.02  1.2943E-12   -148.98
   75.00     90.00    -13.04  -999.99   -13.04      0.0000     -0.00 LINEAR  6.4973E-02     30.85  1.2811E-12   -149.15
   80.00     90.00    -16.57  -999.99   -16.57      0.0000     -0.00 LINEAR  4.3265E-02     30.73  1.2715E-12   -149.27
   85.00     90.00    -22.60  -999.99   -22.60      0.0000     -0.00 LINEAR  2.1615E-02     30.66  1.2657E-12   -149.34
   90.00     90.00   -999.99  -999.99  -999.99      0.0000      0.00         1.2637E-12   -149.37  1.2637E-12   -149.37
   95.00     90.00    -22.60  -999.99   -22.60      0.0000      0.00 LINEAR  2.1615E-02   -149.34  1.2657E-12   -149.34
  100.00     90.00    -16.57  -999.99   -16.57      0.0000      0.00 LINEAR  4.3265E-02   -149.27  1.2715E-12   -149.27
  105.00     90.00    -13.04  -999.99   -13.04      0.0000      0.00 LINEAR  6.4973E-02   -149.15  1.2811E-12   -149.15
  110.00     90.00    -10.53  -999.99   -10.53      0.0000      0.00 LINEAR  8.6741E-02   -148.98  1.2943E-12   -148.98
  115.00     90.00     -8.58  -999.99    -8.58      0.0000      0.00 LINEAR  1.0853E-01   -148.78  1.3106E-12   -148.78
  120.00     90.00     -7.00  -999.99    -7.00      0.0000      0.00 LINEAR  1.3028E-01   -148.55  1.3298E-12   -148.55
  125.00     90.00     -5.66  -999.99    -5.66      0.0000      0.00 LINEAR  1.5186E-01   -148.30  1.3512E-12   -148.30
  130.00     90.00     -4.53  -999.99    -4.53      0.0000      0.00 LINEAR  1.7310E-01   -148.03  1.3743E-12   -148.03
  135.00     90.00     -3.55  -999.99    -3.55      0.0000      0.00 LINEAR  1.9377E-01   -147.76  1.3985E-12   -147.76
  140.00     90.00     -2.70  -999.99    -2.70      0.0000      0.00 LINEAR  2.1359E-01   -147.49  1.4230E-12   -147.49
  145.00     90.00     -1.97  -999.99    -1.97      0.0000      0.00 LINEAR  2.3226E-01   -147.24  1.4470E-12   -147.24
  150.00     90.00     -1.35  -999.99    -1.35      0.0000      0.00 LINEAR  2.4944E-01   -147.00  1.4699E-12   -147.00
  155.00     90.00     -0.84  -999.99    -0.84      0.0000      0.00 LINEAR  2.6475E-01   -146.78  1.4908E-12   -146.78
  160.00     90.00     -0.42  -999.99    -0.42      0.0000      0.00 LINEAR  2.7787E-01   -146.60  1.5091E-12   -146.60
  165.00     90.00     -0.09  -999.99    -0.09      0.0000      0.00 LINEAR  2.8845E-01   -146.45  1.5240E-12   -146.45
  170.00     90.00      0.14  -999.99     0.14      0.0000      0.00 LINEAR  2.9622E-01   -146.34  1.5351E-12   -146.34
  175.00     90.00      0.28  -999.99     0.28      0.0000      0.00 LINEAR  3.0098E-01   -146.27  1.5419E-12   -146.27
  180.00     90.00      0.32  -999.99     0.32      0.0000      0.00 LINEAR  3.0258E-01   -146.25  1.5442E-12   -146.25
    0.00    100.00      0.19   -14.88     0.32      0.0000    -10.00 LINEAR  2.9798E-01     33.75  5.2542E-02   -146.25
    5.00    100.00      0.02   -15.02     0.15      0.0000    -10.04 LINEAR  2.9206E-01     39.28  5.1696E-02   -140.72
   10.00    100.00     -0.25   -15.19    -0.11      0.0000    -10.15 LINEAR  2.8327E-01     44.74  5.0718E-02   -135.26
   15.00    100.00     -0.61   -15.38    -0.46      0.0000    -10.35 LINEAR  2.7187E-01     50.08  4.9628E-02   -129.92
   20.00    100.00     -1.05   -15.59    -0.90      0.0000    -10.63 LINEAR  2.5820E-01     55.25  4.8450E-02   -124.75
   25.00    100.00     -1.59   -15.81    -1.43      0.0000    -11.01 LINEAR  2.4264E-01     60.22  4.7208E-02   -119.78
   30.00    100.00     -2.23   -16.05    -2.05      0.0000    -11.51 LINEAR  2.2558E-01     64.96  4.5929E-02   -115.04
   35.00    100.00     -2.96   -16.30    -2.76      0.0000    -12.15 LINEAR  2.0739E-01     69.43  4.4643E-02   -110.57
   40.00    100.00     -3.79   -16.55    -3.57      0.0000    -12.96 LINEAR  1.8844E-01     73.60  4.3375E-02   -106.40
   45.00    100.00     -4.73   -16.80    -4.47      0.0000    -14.00 LINEAR  1.6904E-01     77.45  4.2152E-02   -102.55
   50.00    100.00     -5.80   -17.04    -5.49      0.0000    -15.34 LINEAR  1.4945E-01     80.95  4.0996E-02    -99.05
   55.00    100.00     -7.02   -17.27    -6.63      0.0000    -17.09 LINEAR  1.2989E-01     84.09  3.9930E-02    -95.91
   60.00    100.00     -8.43   -17.48    -7.92      0.0000    -19.43 LINEAR  1.1051E-01     86.83  3.8971E-02    -93.17
   65.00    100.00    -10.07   -17.67    -9.38      0.0000    -22.65 LINEAR  9.1403E-02     89.18  3.8136E-02    -90.82
   70.00    100.00    -12.07   -17.83   -11.05      0.0000    -27.27 LINEAR  7.2614E-02     91.12  3.7436E-02    -88.88
   75.00    100.00    -14.62   -17.96   -12.97      0.0000    -34.27 LINEAR  5.4136E-02     92.63  3.6882E-02    -87.37
   80.00    100.00    -18.19   -18.05   -15.11      0.0000    -45.44 LINEAR  3.5926E-02     93.72  3.6480E-02    -86.28
   85.00    100.00    -24.23   -18.11   -17.16      0.0000    -63.70 LINEAR  1.7912E-02     94.37  3.6238E-02    -85.63
   90.00    100.00   -999.99   -18.13   -18.13      0.0000     90.00 LINEAR  1.0465E-12    -85.41  3.6157E-02    -85.41
   95.00    100.00    -24.23   -18.11   -17.16      0.0000     63.70 LINEAR  1.7912E-02    -85.63  3.6238E-02    -85.63
  100.00    100.00    -18.19   -18.05   -15.11      0.0000     45.44 LINEAR  3.5926E-02    -86.28  3.6480E-02    -86.28
  105.00    100.00    -14.62   -17.96   -12.97      0.0000     34.27 LINEAR  5.4136E-02    -87.37  3.6882E-02    -87.37
  110.00    100.00    -12.07   -17.83   -11.05      0.0000     27.27 LINEAR  7.2614E-02    -88.88  3.7436E-02    -88.88
  115.00    100.00    -10.07   -17.67    -9.38      0.0000     22.65 LINEAR  9.1403E-02    -90.82  3.8136E-02    -90.82
  120.00    100.00     -8.43   -17.48    -7.92      0.0000     19.43 LINEAR  1.1051E-01    -93.17  3.8971E-02    -93.17
  125.00    100.00     -7.02   -17.27    -6.63      0.0000     17.09 LINEAR  1.2989E-01    -95.91  3.9930E-02    -95.91
  130.00    100.00     -5.80   -17.04    -5.49      0.0000     15.34 LINEAR  1.4945E-01    -99.05  4.0996E-02    -99.05
  135.00    100.00     -4.73   -16.80    -4.47      0.0000     14.00 LINEAR  1.6904E-01   -102.55  4.2152E-02   -102.55
  140.00    100.00     -3.79   -16.55    -3.57      0.0000     12.96 LINEAR  1.8844E-01   -106.40  4.3375E-02   -106.40
  145.00    100.00     -2.96   -16.30    -2.76      0.0000     12.15 LINEAR  2.0739E-01   -110.57  4.4643E-02   -110.57
  150.00    100.00     -2.23   -16.05    -2.05      0.0000     11.51 LINEAR  2.2558E-01   -115.04  4.5929E-02   -115.04
  155.00    100.00     -1.59   -15.81    -1.43      0.0000     11.01 LINEAR  2.4264E-01   -119.78  4.7208E-02   -119.78
  160.00    100.00     -1.05   -15.59    -0.90      0.0000     10.63 LINEAR  2.5820E-01   -124.75  4.8450E-02   -124.75
  165.00    100.00     -0.61   -15.38    -0.46      0.0000     10.35 LINEAR  2.7187E-01   -129.92  4.9628E-02   -129.92
  170.00    100.00     -0.25   -15.19    -0.11      0.0000     10.15 LINEAR  2.8327E-01   -135.26  5.0718E-02   -135.26
  175.00    100.00      0.02   -15.02     0.15      0.0000     10.04 LINEAR  2.9206E-01   -140.72  5.1696E-02   -140.72
  180.00    100.00      0.19   -14.88     0.32      0.0000     10.00 LINEAR  2.9798E-01   -146.25  5.2542E-02   -146.25
    0.00    110.00     -0.22    -9.00     0.32      0.0000    -20.00 LINEAR  2.8433E-01     33.75  1.0349E-01   -146.25
    5.00    110.00     -0.52    -9.26     0.03      0.0000    -20.07 LINEAR  2.7472E-01     44.68  1.0037E-01   -135.32
   10.00    110.00     -0.91    -9.55    -0.35      0.0000    -20.28 LINEAR  2.6268E-01     55.51  9.7083E-02   -124.49
   15.00    110.00     -1.38    -9.86    -0.81      0.0000    -20.65 LINEAR  2.4859E-01     66.16  9.3671E-02   -113.84
   20.00    110.00     -1.95   -10.19    -1.34      0.0000    -21.17 LINEAR  2.3287E-01     76.54  9.0197E-02   -103.46
   25.00    110.00     -2.61   -10.53    -1.96      0.0000    -21.88 LINEAR  2.1594E-01     86.58  8.6721E-02    -93.42
   30.00    110.00     -3.35   -10.88    -2.65      0.0000    -22.80 LINEAR  1.9821E-01     96.19  8.3301E-02    -83.81
   35.00    110.00     -4.19   -11.23    -3.40      0.0000    -23.96 LINEAR  1.8003E-01    105.31  7.9992E-02    -74.69
   40.00    110.00     -5.12   -11.58    -4.23      0.0000    -25.41 LINEAR  1.6173E-01    113.87  7.6842E-02    -66.13
   45.00    110.00     -6.15   -11.92    -5.13      0.0000    -27.24 LINEAR  1.4356E-01    121.80  7.3895E-02    -58.20
   50.00    110.00     -7.31   -12.25    -6.10      0.0000    -29.52 LINEAR  1.2572E-01    129.06  7.1185E-02    -50.94
   55.00    110.00     -8.60   -12.55    -7.13      0.0000    -32.40 LINEAR  1.0833E-01    135.58  6.8744E-02    -44.42
   60.00    110.00    -10.07   -12.83    -8.22      0.0000    -36.05 LINEAR  9.1481E-02    141.32  6.6593E-02    -38.68
   65.00    110.00    -11.77   -13.07    -9.36      0.0000    -40.74 LINEAR  7.5184E-02    146.24  6.4751E-02    -33.76
   70.00    110.00    -13.82   -13.28   -10.53      0.0000    -46.78 LINEAR  5.9417E-02    150.32  6.3230E-02    -29.68
   75.00    110.00    -16.40   -13.44   -11.66      0.0000    -54.58 LINEAR  4.4116E-02    153.51  6.2040E-02    -26.49
   80.00    110.00    -19.99   -13.56   -12.67      0.0000    -64.49 LINEAR  2.9191E-02    155.81  6.1186E-02    -24.19
   85.00    110.00    -26.05   -13.63   -13.39      0.0000    -76.53 LINEAR  1.4528E-02    157.20  6.0672E-02    -22.80
   90.00    110.00   -999.99   -13.66   -13.66      0.0000     90.00 LINEAR  8.4831E-13    -22.34  6.0501E-02    -22.34
   95.00    110.00    -26.05   -13.63   -13.39      0.0000     76.53 LINEAR  1.4528E-02    -22.80  6.0672E-02    -22.80
  100.00    110.00    -19.99   -13.56   -12.67      0.0000     64.49 LINEAR  2.9191E-02    -24.19  6.1186E-02    -24.19
  105.00    110.00    -16.40   -13.44   -11.66      0.0000     54.58 LINEAR  4.4116E-02    -26.49  6.2040E-02    -26.49
  110.00    110.00    -13.82   -13.28   -10.53      0.0000     46.78 LINEAR  5.9417E-02    -29.68  6.3230E-02    -29.68
  115.00    110.00    -11.77   -13.07    -9.36      0.0000     40.74 LINEAR  7.5184E-02    -33.76  6.4751E-02    -33.76
  120.00    110.00    -10.07   -12.83    -8.22      0.0000     36.05 LINEAR  9.1481E-02    -38.68  6.6593E-02    -38.68
  125.00    110.00     -8.60   -12.55    -7.13      0.0000     32.40 LINEAR  1.0833E-01    -44.42  6.8744E-02    -44.42
  130.00    110.00     -7.31   -12.25    -6.10      0.0000     29.52 LINEAR  1.2572E-01    -50.94  7.1185E-02    -50.94
  135.00    110.00     -6.15   -11.92    -5.13      0.0000     27.24 LINEAR  1.4356E-01    -58.20  7.3895E-02    -58.20
  140.00    110.00     -5.12   -11.58    -4.23      0.0000     25.41 LINEAR  1.6173E-01    -66.13  7.6842E-02    -66.13
  145.00    110.00     -4.19   -11.23    -3.40      0.0000     23.96 LINEAR  1.8003E-01    -74.69  7.9992E-02    -74.69
  150.00    110.00     -3.35   -10.88    -2.65      0.0000     22.80 LINEAR  1.9821E-01    -83.81  8.3301E-02    -83.81
  155.00    110.00     -2.61   -10.53    -1.96      0.0000     21.88 LINEAR  2.1594E-01    -93.42  8.6721E-02    -93.42
  160.00    110.00     -1.95   -10.19    -1.34      0.0000     21.17 LINEAR  2.3287E-01   -103.46  9.0197E-02   -103.46
  165.00    110.00     -1.38    -9.86    -0.81      0.0000     20.65 LINEAR  2.4859E-01   -113.84  9.3671E-02   -113.84
  170.00    110.00     -0.91    -9.55    -0.35      0.0000     20.28 LINEAR  2.6268E-01   -124.49  9.7083E-02   -124.49
  175.00    110.00     -0.52    -9.26     0.03      0.0000     20.07 LINEAR  2.7472E-01   -135.32  1.0037E-01   -135.32
  180.00    110.00     -0.22    -9.00     0.32      0.0000     20.00 LINEAR  2.8433E-01   -146.25  1.0349E-01   -146.25
    0.00    120.00     -0.93    -5.70     0.32      0.0000    -30.00 LINEAR  2.6204E-01     33.75  1.5129E-01   -146.25
    5.00    120.00     -1.34    -6.08    -0.08      0.0000    -30.09 LINEAR  2.4981E-01     49.75  1.4478E-01   -130.25
   10.00    120.00     -1.85    -6.49    -0.56      0.0000    -30.38 LINEAR  2.3568E-01     65.65  1.3817E-01   -114.35
   15.00    120.00     -2.44    -6.91    -1.11      0.0000    -30.87 LINEAR  2.2013E-01     81.32  1.3157E-01    -98.68
   20.00    120.00     -3.12    -7.35    -1.73      0.0000    -31.57 LINEAR  2.0359E-01     96.63  1.2509E-01    -83.37
   25.00    120.00     -3.88    -7.80    -2.40      0.0000    -32.50 LINEAR  1.8649E-01    111.47  1.1880E-01    -68.53
   30.00    120.00     -4.73    -8.25    -3.13      0.0000    -33.69 LINEAR  1.6921E-01    125.72  1.1280E-01    -54.28
   35.00    120.00     -5.65    -8.69    -3.90      0.0000    -35.18 LINEAR  1.5204E-01    139.27  1.0716E-01    -40.73
   40.00    120.00     -6.67    -9.13    -4.72      0.0000    -37.00 LINEAR  1.3525E-01    152.01  1.0193E-01    -27.99
   45.00    120.00     -7.78    -9.54    -5.56      0.0000    -39.23 LINEAR  1.1900E-01    163.84  9.7162E-02    -16.16
   50.00    120.00     -9.00    -9.94    -6.43      0.0000    -41.93 LINEAR  1.0340E-01    174.68  9.2874E-02     -5.32
   55.00    120.00    -10.35   -10.30    -7.32      0.0000    -45.19 LINEAR  8.8506E-02   -175.57  8.9089E-02      4.43
   60.00    120.00    -11.87   -10.62    -8.19      0.0000    -49.11 LINEAR  7.4319E-02   -166.97  8.5816E-02     13.03
   65.00    120.00    -13.62   -10.91    -9.04      0.0000    -53.80 LINEAR  6.0798E-02   -159.58  8.3058E-02     20.42
   70.00    120.00    -15.69   -11.14    -9.84      0.0000    -59.36 LINEAR  4.7873E-02   -153.47  8.0812E-02     26.53
   75.00    120.00    -18.30   -11.33   -10.54      0.0000    -65.85 LINEAR  3.5448E-02   -148.67  7.9074E-02     31.33
   80.00    120.00    -21.91   -11.47   -11.09      0.0000    -73.26 LINEAR  2.3411E-02   -145.22  7.7837E-02     34.78
   85.00    120.00    -27.98   -11.55   -11.46      0.0000    -81.42 LINEAR  1.1638E-02   -143.14  7.7097E-02     36.86
   90.00    120.00   -999.99   -11.58   -11.58      0.0000     90.00 LINEAR  6.7931E-13     37.55  7.6851E-02     37.55
   95.00    120.00    -27.98   -11.55   -11.46      0.0000     81.42 LINEAR  1.1638E-02     36.86  7.7097E-02     36.86
  100.00    120.00    -21.91   -11.47   -11.09      0.0000     73.26 LINEAR  2.3411E-02     34.78  7.7837E-02     34.78
  105.00    120.00    -18.30   -11.33   -10.54      0.0000     65.85 LINEAR  3.5448E-02     31.33  7.9074E-02     31.33
  110.00    120.00    -15.69   -11.14    -9.84      0.0000     59.36 LINEAR  4.7873E-02     26.53  8.0812E-02     26.53
  115.00    120.00    -13.62   -10.91    -9.04      0.0000     53.80 LINEAR  6.0798E-02     20.42  8.3058E-02     20.42
  120.00    120.00    -11.87   -10.62    -8.19      0.0000     49.11 LINEAR  7.4319E-02     13.03  8.5816E-02     13.03
  125.00    120.00    -10.35   -10.30    -7.32      0.0000     45.19 LINEAR  8.8506E-02      4.43  8.9089E-02      4.43
  130.00    120.00     -9.00    -9.94    -6.43      0.0000     41.93 LINEAR  1.0340E-01     -5.32  9.2874E-02     -5.32
  135.00    120.00     -7.78    -9.54    -5.56      0.0000     39.23 LINEAR  1.1900E-01    -16.16  9.7162E-02    -16.16
  140.00    120.00     -6.67    -9.13    -4.72      0.0000     37.00 LINEAR  1.3525E-01    -27.99  1.0193E-01    -27.99
  145.00    120.00     -5.65    -8.69    -3.90      0.0000     35.18 LINEAR  1.5204E-01    -40.73  1.0716E-01    -40.73
  150.00    120.00     -4.73    -8.25    -3.13      0.0000     33.69 LINEAR  1.6921E-01    -54.28  1.1280E-01    -54.28
  155.00    120.00     -3.88    -7.80    -2.40      0.0000     32.50 LINEAR  1.8649E-01    -68.53  1.1880E-01    -68.53
  160.00    120.00     -3.12    -7.35    -1.73      0.0000     31.57 LINEAR  2.0359E-01    -83.37  1.2509E-01    -83.37
  165.00    120.00     -2.44    -6.91    -1.11      0.0000     30.87 LINEAR  2.2013E-01    -98.68  1.3157E-01    -98.68
  170.00    120.00     -1.85    -6.49    -0.56      0.0000     30.38 LINEAR  2.3568E-01   -114.35  1.3817E-01   -114.35
  175.00    120.00     -1.34    -6.08    -0.08      0.0000     30.09 LINEAR  2.4981E-01   -130.25  1.4478E-01   -130.25
  180.00    120.00     -0.93    -5.70     0.32      0.0000     30.00 LINEAR  2.6204E-01   -146.25  1.5129E-01   -146.25
    0.00    130.00     -1.99    -3.52     0.32      0.0000    -40.00 LINEAR  2.3179E-01     33.75  1.9449E-01   -146.25
    5.00    130.00     -2.51    -4.00    -0.18      0.0000    -40.11 LINEAR  2.1830E-01     54.34  1.8387E-01   -125.66
   10.00    130.00     -3.12    -4.51    -0.75      0.0000    -40.43 LINEAR  2.0349E-01     74.83  1.7338E-01   -105.17
   15.00    130.00     -3.82    -5.04    -1.38      0.0000    -40.98 LINEAR  1.8782E-01     95.06  1.6316E-01    -84.94
   20.00    130.00     -4.60    -5.58    -2.05      0.0000    -41.76 LINEAR  1.7176E-01    114.87  1.5337E-01    -65.13
   25.00    130.00     -5.45    -6.12    -2.76      0.0000    -42.79 LINEAR  1.5566E-01    134.09  1.4412E-01    -45.91
   30.00    130.00     -6.38    -6.65    -3.51      0.0000    -44.10 LINEAR  1.3985E-01    152.58  1.3550E-01    -27.42
   35.00    130.00     -7.39    -7.18    -4.27      0.0000    -45.69 LINEAR  1.2456E-01    170.17  1.2759E-01     -9.83
   40.00    130.00     -8.47    -7.68    -5.05      0.0000    -47.61 LINEAR  1.0995E-01   -173.28  1.2043E-01      6.72
   45.00    130.00     -9.64    -8.15    -5.82      0.0000    -49.88 LINEAR  9.6101E-02   -157.90  1.1404E-01     22.10
   50.00    130.00    -10.91    -8.59    -6.59      0.0000    -52.55 LINEAR  8.3049E-02   -143.82  1.0841E-01     36.18
   55.00    130.00    -12.30    -8.99    -7.33      0.0000    -55.64 LINEAR  7.0775E-02   -131.15  1.0354E-01     48.85
   60.00    130.00    -13.84    -9.35    -8.03      0.0000    -59.21 LINEAR  5.9227E-02   -119.99  9.9395E-02     60.01
   65.00    130.00    -15.61    -9.65    -8.67      0.0000    -63.27 LINEAR  4.8327E-02   -110.43  9.5953E-02     69.57
   70.00    130.00    -17.70    -9.91    -9.24      0.0000    -67.82 LINEAR  3.7982E-02   -102.52  9.3184E-02     77.48
   75.00    130.00    -20.32   -10.11    -9.71      0.0000    -72.86 LINEAR  2.8088E-02    -96.32  9.1061E-02     83.68
   80.00    130.00    -23.93   -10.25   -10.07      0.0000    -78.31 LINEAR  1.8535E-02    -91.86  8.9562E-02     88.14
   85.00    130.00    -30.01   -10.34   -10.29      0.0000    -84.07 LINEAR  9.2100E-03    -89.18  8.8670E-02     90.82
   90.00    130.00   -999.99   -10.37   -10.37      0.0000     90.00 LINEAR  5.3749E-13     91.72  8.8374E-02     91.72
   95.00    130.00    -30.01   -10.34   -10.29      0.0000     84.07 LINEAR  9.2100E-03     90.82  8.8670E-02     90.82
  100.00    130.00    -23.93   -10.25   -10.07      0.0000     78.31 LINEAR  1.8535E-02     88.14  8.9562E-02     88.14
  105.00    130.00    -20.32   -10.11    -9.71      0.0000     72.86 LINEAR  2.8088E-02     83.68  9.1061E-02     83.68
  110.00    130.00    -17.70    -9.91    -9.24      0.0000     67.82 LINEAR  3.7982E-02     77.48  9.3184E-02     77.48
  115.00    130.00    -15.61    -9.65    -8.67      0.0000     63.27 LINEAR  4.8327E-02     69.57  9.5953E-02     69.57
  120.00    130.00    -13.84    -9.35    -8.03      0.0000     59.21 LINEAR  5.9227E-02     60.01  9.9395E-02     60.01
  125.00    130.00    -12.30    -8.99    -7.33      0.0000     55.64 LINEAR  7.0775E-02     48.85  1.0354E-01     48.85
  130.00    130.00    -10.91    -8.59    -6.59      0.0000     52.55 LINEAR  8.3049E-02     36.18  1.0841E-01     36.18
  135.00    130.00     -9.64    -8.15    -5.82      0.0000     49.88 LINEAR  9.6101E-02     22.10  1.1404E-01     22.10
  140.00    130.00     -8.47    -7.68    -5.05      0.0000     47.61 LINEAR  1.0995E-01      6.72  1.2043E-01      6.72
  145.00    130.00     -7.39    -7.18    -4.27      0.0000     45.69 LINEAR  1.2456E-01     -9.83  1.2759E-01     -9.83
  150.00    130.00     -6.38    -6.65    -3.51      0.0000     44.10 LINEAR  1.3985E-01    -27.42  1.3550E-01    -27.42
  155.00    130.00     -5.45    -6.12    -2.76      0.0000     42.79 LINEAR  1.5566E-01    -45.91  1.4412E-01    -45.91
  160.00    130.00     -4.60    -5.58    -2.05      0.0000     41.76 LINEAR  1.7176E-01    -65.13  1.5337E-01    -65.13
  165.00    130.00     -3.82    -5.04    -1.38      0.0000     40.98 LINEAR  1.8782E-01    -84.94  1.6316E-01    -84.94
  170.00    130.00     -3.12    -4.51    -0.75      0.0000     40.43 LINEAR  2.0349E-01   -105.17  1.7338E-01   -105.17
  175.00    130.00     -2.51    -4.00    -0.18      0.0000     40.11 LINEAR  2.1830E-01   -125.66  1.8387E-01   -125.66
  180.00    130.00     -1.99    -3.52     0.32      0.0000     40.00 LINEAR  2.3179E-01   -146.25  1.9449E-01   -146.25
    0.00    140.00     -3.52    -1.99     0.32      0.0000    -50.00 LINEAR  1.9449E-01     33.75  2.3179E-01   -146.25
    5.00    140.00     -4.13    -2.57    -0.27      0.0000    -50.11 LINEAR  1.8126E-01     58.31  2.1685E-01   -121.69
   10.00    140.00     -4.83    -3.17    -0.91      0.0000    -50.43 LINEAR  1.6722E-01     82.77  2.0235E-01    -97.23
   15.00    140.00     -5.61    -3.79    -1.59      0.0000    -50.97 LINEAR  1.5280E-01    106.96  1.8852E-01    -73.04
   20.00    140.00     -6.47    -4.41    -2.31      0.0000    -51.74 LINEAR  1.3840E-01    130.67  1.7552E-01    -49.33
   25.00    140.00     -7.40    -5.02    -3.04      0.0000    -52.75 LINEAR  1.2433E-01    153.71  1.6349E-01    -26.29
   30.00    140.00     -8.40    -5.63    -3.79      0.0000    -53.99 LINEAR  1.1084E-01    175.87  1.5253E-01     -4.13
[...]
  105.00    320.00    -10.74     2.52     2.72      0.0000     77.75 LINEAR  1.0521E-01   -163.68  4.8444E-01   -163.68
  110.00    320.00     -8.37     2.48     2.82      0.0000     73.99 LINEAR  1.3827E-01   -156.69  4.8180E-01   -156.69
  115.00    320.00     -6.59     2.41     2.93      0.0000     70.47 LINEAR  1.6957E-01   -147.80  4.7819E-01   -147.80
  120.00    320.00     -5.22     2.33     3.03      0.0000     67.24 LINEAR  1.9864E-01   -137.03  4.7346E-01   -137.03
  125.00    320.00     -4.14     2.21     3.12      0.0000     64.30 LINEAR  2.2498E-01   -124.48  4.6745E-01   -124.48
  130.00    320.00     -3.29     2.07     3.18      0.0000     61.66 LINEAR  2.4810E-01   -110.21  4.5999E-01   -110.21
  135.00    320.00     -2.63     1.90     3.21      0.0000     59.32 LINEAR  2.6752E-01    -94.31  4.5088E-01    -94.31
  140.00    320.00     -2.15     1.69     3.19      0.0000     57.27 LINEAR  2.8280E-01    -76.88  4.3996E-01    -76.88
  145.00    320.00     -1.83     1.43     3.11      0.0000     55.50 LINEAR  2.9356E-01    -58.02  4.2710E-01    -58.02
  150.00    320.00     -1.65     1.12     2.96      0.0000     53.99 LINEAR  2.9953E-01    -37.84  4.1219E-01    -37.84
  155.00    320.00     -1.62     0.76     2.74      0.0000     52.75 LINEAR  3.0056E-01    -16.48  3.9522E-01    -16.48
  160.00    320.00     -1.73     0.33     2.43      0.0000     51.74 LINEAR  2.9668E-01      5.93  3.7626E-01      5.93
  165.00    320.00     -1.99    -0.16     2.03      0.0000     50.97 LINEAR  2.8815E-01     29.24  3.5552E-01     29.24
  170.00    320.00     -2.38    -0.72     1.54      0.0000     50.43 LINEAR  2.7541E-01     53.31  3.3329E-01     53.31
  175.00    320.00     -2.91    -1.35     0.95      0.0000     50.11 LINEAR  2.5914E-01     77.96  3.1001E-01     77.96
  180.00    320.00     -3.57    -2.05     0.27      0.0000     50.00 LINEAR  2.4014E-01    103.00  2.8619E-01    103.00
    0.00    330.00     -5.75    -0.98     0.27      0.0000    -60.00 LINEAR  1.8680E-01    -77.00  3.2355E-01    103.00
    5.00    330.00     -5.00    -0.20     1.04      0.0000    -60.09 LINEAR  2.0367E-01   -105.29  3.5411E-01     74.71
   10.00    330.00     -4.39     0.51     1.73      0.0000    -60.38 LINEAR  2.1845E-01   -133.09  3.8421E-01     46.91
   15.00    330.00     -3.93     1.14     2.32      0.0000    -60.85 LINEAR  2.3038E-01   -160.19  4.1310E-01     19.81
   20.00    330.00     -3.62     1.69     2.81      0.0000    -61.52 LINEAR  2.3882E-01    173.58  4.4019E-01     -6.42
   25.00    330.00     -3.46     2.17     3.22      0.0000    -62.38 LINEAR  2.4334E-01    148.39  4.6504E-01    -31.61
   30.00    330.00     -3.44     2.58     3.55      0.0000    -63.43 LINEAR  2.4370E-01    124.40  4.8739E-01    -55.60
   35.00    330.00     -3.58     2.92     3.80      0.0000    -64.69 LINEAR  2.3985E-01    101.75  5.0714E-01    -78.25
   40.00    330.00     -3.87     3.21     3.99      0.0000    -66.14 LINEAR  2.3189E-01     80.58  5.2431E-01    -99.42
   45.00    330.00     -4.33     3.45     4.12      0.0000    -67.79 LINEAR  2.2005E-01     61.02  5.3901E-01   -118.98
   50.00    330.00     -4.96     3.65     4.21      0.0000    -69.64 LINEAR  2.0464E-01     43.17  5.5141E-01   -136.83
   55.00    330.00     -5.79     3.81     4.26      0.0000    -71.68 LINEAR  1.8601E-01     27.15  5.6170E-01   -152.85
   60.00    330.00     -6.85     3.94     4.29      0.0000    -73.90 LINEAR  1.6457E-01     13.05  5.7010E-01   -166.95
   65.00    330.00     -8.21     4.04     4.29      0.0000    -76.29 LINEAR  1.4074E-01      0.97  5.7681E-01   -179.03
   70.00    330.00     -9.97     4.12     4.28      0.0000    -78.83 LINEAR  1.1493E-01     -9.03  5.8200E-01    170.97
   75.00    330.00    -12.34     4.18     4.27      0.0000    -81.50 LINEAR  8.7545E-02    -16.87  5.8586E-01    163.13
   80.00    330.00    -15.76     4.21     4.26      0.0000    -84.27 LINEAR  5.9002E-02    -22.51  5.8851E-01    157.49
   85.00    330.00    -21.73     4.24     4.25      0.0000    -87.12 LINEAR  2.9691E-02    -25.91  5.9006E-01    154.09
   90.00    330.00   -999.99     4.24     4.24      0.0000     90.00 LINEAR  1.7401E-12    152.95  5.9057E-01    152.95
   95.00    330.00    -21.73     4.24     4.25      0.0000     87.12 LINEAR  2.9691E-02    154.09  5.9006E-01    154.09
  100.00    330.00    -15.76     4.21     4.26      0.0000     84.27 LINEAR  5.9002E-02    157.49  5.8851E-01    157.49
  105.00    330.00    -12.34     4.18     4.27      0.0000     81.50 LINEAR  8.7545E-02    163.13  5.8586E-01    163.13
  110.00    330.00     -9.97     4.12     4.28      0.0000     78.83 LINEAR  1.1493E-01    170.97  5.8200E-01    170.97
  115.00    330.00     -8.21     4.04     4.29      0.0000     76.29 LINEAR  1.4074E-01   -179.03  5.7681E-01   -179.03
  120.00    330.00     -6.85     3.94     4.29      0.0000     73.90 LINEAR  1.6457E-01   -166.95  5.7010E-01   -166.95
  125.00    330.00     -5.79     3.81     4.26      0.0000     71.68 LINEAR  1.8601E-01   -152.85  5.6170E-01   -152.85
  130.00    330.00     -4.96     3.65     4.21      0.0000     69.64 LINEAR  2.0464E-01   -136.83  5.5141E-01   -136.83
  135.00    330.00     -4.33     3.45     4.12      0.0000     67.79 LINEAR  2.2005E-01   -118.98  5.3901E-01   -118.98
  140.00    330.00     -3.87     3.21     3.99      0.0000     66.14 LINEAR  2.3189E-01    -99.42  5.2431E-01    -99.42
  145.00    330.00     -3.58     2.92     3.80      0.0000     64.69 LINEAR  2.3985E-01    -78.25  5.0714E-01    -78.25
  150.00    330.00     -3.44     2.58     3.55      0.0000     63.43 LINEAR  2.4370E-01    -55.60  4.8739E-01    -55.60
  155.00    330.00     -3.46     2.17     3.22      0.0000     62.38 LINEAR  2.4334E-01    -31.61  4.6504E-01    -31.61
  160.00    330.00     -3.62     1.69     2.81      0.0000     61.52 LINEAR  2.3882E-01     -6.42  4.4019E-01     -6.42
  165.00    330.00     -3.93     1.14     2.32      0.0000     60.85 LINEAR  2.3038E-01     19.81  4.1310E-01     19.81
  170.00    330.00     -4.39     0.51     1.73      0.0000     60.38 LINEAR  2.1845E-01     46.91  3.8421E-01     46.91
  175.00    330.00     -5.00    -0.20     1.04      0.0000     60.09 LINEAR  2.0367E-01     74.71  3.5411E-01     74.71
  180.00    330.00     -5.75    -0.98     0.27      0.0000     60.00 LINEAR  1.8680E-01    103.00  3.2355E-01    103.00
    0.00    340.00     -9.05    -0.27     0.27      0.0000    -70.00 LINEAR  1.2778E-01    -77.00  3.5107E-01    103.00
    5.00    340.00     -8.23     0.58     1.11      0.0000    -70.07 LINEAR  1.4038E-01   -107.68  3.8716E-01     72.32
   10.00    340.00     -7.57     1.34     1.87      0.0000    -70.28 LINEAR  1.5157E-01   -137.79  4.2285E-01     42.21
   15.00    340.00     -7.06     2.02     2.53      0.0000    -70.63 LINEAR  1.6075E-01   -167.12  4.5723E-01     12.88
   20.00    340.00     -6.70     2.61     3.10      0.0000    -71.12 LINEAR  1.6743E-01    164.51  4.8952E-01    -15.49
   25.00    340.00     -6.51     3.13     3.57      0.0000    -71.74 LINEAR  1.7127E-01    137.29  5.1921E-01    -42.71
   30.00    340.00     -6.47     3.56     3.97      0.0000    -72.50 LINEAR  1.7209E-01    111.37  5.4597E-01    -68.63
   35.00    340.00     -6.58     3.93     4.30      0.0000    -73.40 LINEAR  1.6985E-01     86.91  5.6970E-01    -93.09
   40.00    340.00     -6.85     4.24     4.57      0.0000    -74.42 LINEAR  1.6462E-01     64.05  5.9043E-01   -115.95
   45.00    340.00     -7.29     4.50     4.78      0.0000    -75.57 LINEAR  1.5655E-01     42.91  6.0828E-01   -137.09
   50.00    340.00     -7.90     4.72     4.95      0.0000    -76.83 LINEAR  1.4586E-01     23.64  6.2345E-01   -156.36
   55.00    340.00     -8.72     4.89     5.08      0.0000    -78.21 LINEAR  1.3280E-01      6.33  6.3615E-01   -173.67
   60.00    340.00     -9.77     5.03     5.17      0.0000    -79.69 LINEAR  1.1767E-01     -8.91  6.4659E-01    171.09
   65.00    340.00    -11.12     5.14     5.25      0.0000    -81.26 LINEAR  1.0075E-01    -21.97  6.5501E-01    158.03
   70.00    340.00    -12.87     5.23     5.30      0.0000    -82.90 LINEAR  8.2357E-02    -32.78  6.6158E-01    147.22
   75.00    340.00    -15.22     5.30     5.33      0.0000    -84.62 LINEAR  6.2785E-02    -41.27  6.6650E-01    138.73
   80.00    340.00    -18.65     5.34     5.36      0.0000    -86.38 LINEAR  4.2339E-02    -47.37  6.6989E-01    132.63
   85.00    340.00    -24.61     5.37     5.37      0.0000    -88.18 LINEAR  2.1314E-02    -51.05  6.7189E-01    128.95
   90.00    340.00   -999.99     5.37     5.37      0.0000     90.00 LINEAR  1.2492E-12    127.72  6.7254E-01    127.72
   95.00    340.00    -24.61     5.37     5.37      0.0000     88.18 LINEAR  2.1314E-02    128.95  6.7189E-01    128.95
  100.00    340.00    -18.65     5.34     5.36      0.0000     86.38 LINEAR  4.2339E-02    132.63  6.6989E-01    132.63
  105.00    340.00    -15.22     5.30     5.33      0.0000     84.62 LINEAR  6.2785E-02    138.73  6.6650E-01    138.73
  110.00    340.00    -12.87     5.23     5.30      0.0000     82.90 LINEAR  8.2357E-02    147.22  6.6158E-01    147.22
  115.00    340.00    -11.12     5.14     5.25      0.0000     81.26 LINEAR  1.0075E-01    158.03  6.5501E-01    158.03
  120.00    340.00     -9.77     5.03     5.17      0.0000     79.69 LINEAR  1.1767E-01    171.09  6.4659E-01    171.09
  125.00    340.00     -8.72     4.89     5.08      0.0000     78.21 LINEAR  1.3280E-01   -173.67  6.3615E-01   -173.67
  130.00    340.00     -7.90     4.72     4.95      0.0000     76.83 LINEAR  1.4586E-01   -156.36  6.2345E-01   -156.36
  135.00    340.00     -7.29     4.50     4.78      0.0000     75.57 LINEAR  1.5655E-01   -137.09  6.0828E-01   -137.09
  140.00    340.00     -6.85     4.24     4.57      0.0000     74.42 LINEAR  1.6462E-01   -115.95  5.9043E-01   -115.95
  145.00    340.00     -6.58     3.93     4.30      0.0000     73.40 LINEAR  1.6985E-01    -93.09  5.6970E-01    -93.09
  150.00    340.00     -6.47     3.56     3.97      0.0000     72.50 LINEAR  1.7209E-01    -68.63  5.4597E-01    -68.63
  155.00    340.00     -6.51     3.13     3.57      0.0000     71.74 LINEAR  1.7127E-01    -42.71  5.1921E-01    -42.71
  160.00    340.00     -6.70     2.61     3.10      0.0000     71.12 LINEAR  1.6743E-01    -15.49  4.8952E-01    -15.49
  165.00    340.00     -7.06     2.02     2.53      0.0000     70.63 LINEAR  1.6075E-01     12.88  4.5723E-01     12.88
  170.00    340.00     -7.57     1.34     1.87      0.0000     70.28 LINEAR  1.5157E-01     42.21  4.2285E-01     42.21
  175.00    340.00     -8.23     0.58     1.11      0.0000     70.07 LINEAR  1.4038E-01     72.32  3.8716E-01     72.32
  180.00    340.00     -9.05    -0.27     0.27      0.0000     70.00 LINEAR  1.2778E-01    103.00  3.5107E-01    103.00
    0.00    350.00    -14.94     0.13     0.27      0.0000    -80.00 LINEAR  6.4875E-02    -77.00  3.6792E-01    103.00
    5.00    350.00    -14.08     1.02     1.16      0.0000    -80.04 LINEAR  7.1602E-02   -109.14  4.0762E-01     70.86
   10.00    350.00    -13.38     1.83     1.95      0.0000    -80.15 LINEAR  7.7619E-02   -140.66  4.4699E-01     39.34
   15.00    350.00    -12.84     2.53     2.66      0.0000    -80.33 LINEAR  8.2597E-02   -171.36  4.8496E-01      8.64
   20.00    350.00    -12.46     3.15     3.27      0.0000    -80.59 LINEAR  8.6270E-02    158.97  5.2066E-01    -21.03
   25.00    350.00    -12.25     3.68     3.79      0.0000    -80.92 LINEAR  8.8455E-02    130.51  5.5351E-01    -49.49
   30.00    350.00    -12.19     4.14     4.24      0.0000    -81.32 LINEAR  8.9052E-02    103.41  5.8317E-01    -76.59
   35.00    350.00    -12.29     4.52     4.61      0.0000    -81.78 LINEAR  8.8037E-02     77.84  6.0951E-01   -102.16
   40.00    350.00    -12.55     4.84     4.92      0.0000    -82.31 LINEAR  8.5446E-02     53.95  6.3259E-01   -126.05
   45.00    350.00    -12.97     5.11     5.18      0.0000    -82.89 LINEAR  8.1359E-02     31.86  6.5253E-01   -148.14
   50.00    350.00    -13.58     5.34     5.39      0.0000    -83.53 LINEAR  7.5887E-02     11.70  6.6955E-01   -168.30
   55.00    350.00    -14.38     5.52     5.56      0.0000    -84.22 LINEAR  6.9164E-02     -6.40  6.8386E-01    173.60
   60.00    350.00    -15.43     5.67     5.70      0.0000    -84.96 LINEAR  6.1335E-02    -22.33  6.9569E-01    157.67
   65.00    350.00    -16.77     5.79     5.81      0.0000    -85.74 LINEAR  5.2556E-02    -36.00  7.0527E-01    144.00
   70.00    350.00    -18.51     5.88     5.89      0.0000    -86.55 LINEAR  4.2986E-02    -47.31  7.1278E-01    132.69
   75.00    350.00    -20.87     5.95     5.96      0.0000    -87.39 LINEAR  3.2786E-02    -56.19  7.1841E-01    123.81
   80.00    350.00    -24.29     5.99     6.00      0.0000    -88.25 LINEAR  2.2117E-02    -62.58  7.2232E-01    117.42
   85.00    350.00    -30.25     6.02     6.02      0.0000    -89.12 LINEAR  1.1136E-02    -66.43  7.2461E-01    113.57
   90.00    350.00   -999.99     6.03     6.03      0.0000     90.00 LINEAR  6.5274E-13    112.29  7.2537E-01    112.29
   95.00    350.00    -30.25     6.02     6.02      0.0000     89.12 LINEAR  1.1136E-02    113.57  7.2461E-01    113.57
  100.00    350.00    -24.29     5.99     6.00      0.0000     88.25 LINEAR  2.2117E-02    117.42  7.2232E-01    117.42
  105.00    350.00    -20.87     5.95     5.96      0.0000     87.39 LINEAR  3.2786E-02    123.81  7.1841E-01    123.81
  110.00    350.00    -18.51     5.88     5.89      0.0000     86.55 LINEAR  4.2986E-02    132.69  7.1278E-01    132.69
  115.00    350.00    -16.77     5.79     5.81      0.0000     85.74 LINEAR  5.2556E-02    144.00  7.0527E-01    144.00
  120.00    350.00    -15.43     5.67     5.70      0.0000     84.96 LINEAR  6.1335E-02    157.67  6.9569E-01    157.67
  125.00    350.00    -14.38     5.52     5.56      0.0000     84.22 LINEAR  6.9164E-02    173.60  6.8386E-01    173.60
  130.00    350.00    -13.58     5.34     5.39      0.0000     83.53 LINEAR  7.5887E-02   -168.30  6.6955E-01   -168.30
  135.00    350.00    -12.97     5.11     5.18      0.0000     82.89 LINEAR  8.1359E-02   -148.14  6.5253E-01   -148.14
  140.00    350.00    -12.55     4.84     4.92      0.0000     82.31 LINEAR  8.5446E-02   -126.05  6.3259E-01   -126.05
  145.00    350.00    -12.29     4.52     4.61      0.0000     81.78 LINEAR  8.8037E-02   -102.16  6.0951E-01   -102.16
  150.00    350.00    -12.19     4.14     4.24      0.0000     81.32 LINEAR  8.9052E-02    -76.59  5.8317E-01    -76.59
  155.00    350.00    -12.25     3.68     3.79      0.0000     80.92 LINEAR  8.8455E-02    -49.49  5.5351E-01    -49.49
  160.00    350.00    -12.46     3.15     3.27      0.0000     80.59 LINEAR  8.6270E-02    -21.03  5.2066E-01    -21.03
  165.00    350.00    -12.84     2.53     2.66      0.0000     80.33 LINEAR  8.2597E-02      8.64  4.8496E-01      8.64
  170.00    350.00    -13.38     1.83     1.95      0.0000     80.15 LINEAR  7.7619E-02     39.34  4.4699E-01     39.34
  175.00    350.00    -14.08     1.02     1.16      0.0000     80.04 LINEAR  7.1602E-02     70.86  4.0762E-01     70.86
  180.00    350.00    -14.94     0.13     0.27      0.0000     80.00 LINEAR  6.4875E-02    103.00  3.6792E-01    103.00
    0.00    360.00   -999.99     0.27     0.27      0.0000     90.00 LINEAR  7.6265E-12    103.00  3.7360E-01    103.00
    5.00    360.00   -999.99     1.17     1.17      0.0000     90.00 LINEAR  8.4304E-12     70.37  4.1456E-01     70.37
   10.00    360.00   -999.99     1.98     1.98      0.0000     90.00 LINEAR  9.1511E-12     38.37  4.5520E-01     38.37
   15.00    360.00   -999.99     2.70     2.70      0.0000     90.00 LINEAR  9.7489E-12      7.22  4.9441E-01      7.22
   20.00    360.00   -999.99     3.33     3.33      0.0000     90.00 LINEAR  1.0192E-11    -22.89  5.3131E-01    -22.89
   25.00    360.00   -999.99     3.86     3.86      0.0000     90.00 LINEAR  1.0458E-11    -51.77  5.6526E-01    -51.77
   30.00    360.00   -999.99     4.32     4.32      0.0000     90.00 LINEAR  1.0535E-11    -79.26  5.9592E-01    -79.26
   35.00    360.00   -999.99     4.71     4.71      0.0000     90.00 LINEAR  1.0421E-11   -105.20  6.2318E-01   -105.20
   40.00    360.00   -999.99     5.04     5.04      0.0000     90.00 LINEAR  1.0119E-11   -129.45  6.4707E-01   -129.45
   45.00    360.00   -999.99     5.31     5.31      0.0000     90.00 LINEAR  9.6386E-12   -151.86  6.6775E-01   -151.86
   50.00    360.00   -999.99     5.54     5.54      0.0000     90.00 LINEAR  8.9937E-12   -172.31  6.8541E-01   -172.31
   55.00    360.00   -999.99     5.73     5.73      0.0000     90.00 LINEAR  8.1996E-12    169.32  7.0030E-01    169.32
   60.00    360.00   -999.99     5.88     5.88      0.0000     90.00 LINEAR  7.2735E-12    153.15  7.1262E-01    153.15
   65.00    360.00   -999.99     6.00     6.00      0.0000     90.00 LINEAR  6.2340E-12    139.28  7.2260E-01    139.28
   70.00    360.00   -999.99     6.09     6.09      0.0000     90.00 LINEAR  5.0999E-12    127.80  7.3045E-01    127.80
   75.00    360.00   -999.99     6.16     6.16      0.0000     90.00 LINEAR  3.8904E-12    118.79  7.3633E-01    118.79
   80.00    360.00   -999.99     6.21     6.21      0.0000     90.00 LINEAR  2.6246E-12    112.31  7.4042E-01    112.31
   85.00    360.00   -999.99     6.24     6.24      0.0000     90.00 LINEAR  1.3216E-12    108.40  7.4282E-01    108.40
   90.00    360.00   -999.99     6.25     6.25      0.0000    -90.00 LINEAR  7.7469E-23    -72.91  7.4361E-01    107.09
   95.00    360.00   -999.99     6.24     6.24      0.0000    -90.00 LINEAR  1.3216E-12    -71.60  7.4282E-01    108.40
  100.00    360.00   -999.99     6.21     6.21      0.0000    -90.00 LINEAR  2.6246E-12    -67.69  7.4042E-01    112.31
  105.00    360.00   -999.99     6.16     6.16      0.0000    -90.00 LINEAR  3.8904E-12    -61.21  7.3633E-01    118.79
  110.00    360.00   -999.99     6.09     6.09      0.0000    -90.00 LINEAR  5.0999E-12    -52.20  7.3045E-01    127.80
  115.00    360.00   -999.99     6.00     6.00      0.0000    -90.00 LINEAR  6.2340E-12    -40.72  7.2260E-01    139.28
  120.00    360.00   -999.99     5.88     5.88      0.0000    -90.00 LINEAR  7.2735E-12    -26.85  7.1262E-01    153.15
  125.00    360.00   -999.99     5.73     5.73      0.0000    -90.00 LINEAR  8.1996E-12    -10.68  7.0030E-01    169.32
  130.00    360.00   -999.99     5.54     5.54      0.0000    -90.00 LINEAR  8.9937E-12      7.69  6.8541E-01   -172.31
  135.00    360.00   -999.99     5.31     5.31      0.0000    -90.00 LINEAR  9.6386E-12     28.14  6.6775E-01   -151.86
  140.00    360.00   -999.99     5.04     5.04      0.0000    -90.00 LINEAR  1.0119E-11     50.55  6.4707E-01   -129.45
  145.00    360.00   -999.99     4.71     4.71      0.0000    -90.00 LINEAR  1.0421E-11     74.80  6.2318E-01   -105.20
  150.00    360.00   -999.99     4.32     4.32      0.0000    -90.00 LINEAR  1.0535E-11    100.74  5.9592E-01    -79.26
  155.00    360.00   -999.99     3.86     3.86      0.0000    -90.00 LINEAR  1.0458E-11    128.23  5.6526E-01    -51.77
  160.00    360.00   -999.99     3.33     3.33      0.0000    -90.00 LINEAR  1.0192E-11    157.11  5.3131E-01    -22.89
  165.00    360.00   -999.99     2.70     2.70      0.0000    -90.00 LINEAR  9.7489E-12   -172.78  4.9441E-01      7.22
  170.00    360.00   -999.99     1.98     1.98      0.0000    -90.00 LINEAR  9.1511E-12   -141.63  4.5520E-01     38.37
  175.00    360.00   -999.99     1.17     1.17      0.0000    -90.00 LINEAR  8.4304E-12   -109.63  4.1456E-01     70.37
  180.00    360.00   -999.99     0.27     0.27      0.0000    -90.00 LINEAR  7.6265E-12    -77.00  3.7360E-01    103.00


  AVERAGE POWER GAIN:  9.9560E-01 - SOLID ANGLE USED IN AVERAGING: (+4.0000)*PI STERADIANS
  DATA CARD No:  13 EN   0     0     0     0  0.00000E+00  0.00000E+00  0.00000E+00  0.00000E+00  0.00000E+00  0.00000E+00

  TOTAL RUN TIME: 410 msec