


                                __________________________________________
                               |                                          |
                               | NUMERICAL ELECTROMAGNETICS CODE (nec2++) |
                               | Translated to 'C++' in Double Precision  |
                               |        Version 1.1.0 [2005-01-20]        |
                               |__________________________________________|



                               ---------------- COMMENTS ----------------
                                                        4x6 elements Irradia verso X -->
                               
                               PP 1, 0, 0, 0, 0
                               



                                -------- STRUCTURE SPECIFICATION --------
                                COORDINATES MUST BE INPUT IN
                                METERS OR BE SCALED TO METERS
                                BEFORE STRUCTURE INPUT IS ENDED
  WIRE                                                                                 SEG FIRST  LAST  TAG
   No:        X1         Y1         Z1         X2         Y2         Z2       RADIUS   No:   SEG   SEG  No:

     1      0.0000  -494.9490     0.0000     0.0000   494.9490     0.0000     5.0000    15     1    15    1
     2    669.4670  -463.2060     0.0000   669.4670   463.2060     0.0000     5.0000    15    16    30    2
     3   1406.1450  -455.7330     0.0000  1406.1450   455.7330     0.0000     5.0000    15    31    45    3
     4   2024.4650  -450.8980     0.0000  2024.4650   450.8980     0.0000     5.0000    15    46    60    4
     5   2952.8630  -437.1930     0.0000  2952.8630   437.1930     0.0000     5.0000    15    61    75    5
     6   3649.6810  -456.4510     0.0000  3649.6810   456.4510     0.0000     5.0000    15    76    90    6
     THE STRUCTURE HAS BEEN MOVED, MOVE DATA CARD IS:
     0     0    0.00000    0.00000    0.00000    0.00000 2040.84300 1695.74500    0.00000
     STRUCTURE SCALED BY FACTOR:    0.00100
  STRUCTURE REFLECTED ALONG THE AXES * Y Z - TAGS INCREMENTED BY 100


     TOTAL SEGMENTS USED: 360   SEGMENTS IN A SYMMETRIC CELL: 90   SYMMETRY FLAG: 2
  STRUCTURE HAS 2 PLANES OF SYMMETRY



                               ---------- SEGMENTATION DATA ----------
                                        COORDINATES IN METERS
                            I+ AND I- INDICATE THE SEGMENTS BEFORE AND AFTER I

   SEG    COORDINATES OF SEGM CENTER     SEGM    ORIENTATION ANGLES    WIRE    CONNECTION DATA   TAG
   No:       X         Y         Z      LENGTH     ALPHA      BETA    RADIUS    I-     I    I+   NO:
     1    0.0000    1.5789    1.6957    0.0660    0.0000   90.0000    0.0050     0     1     2     1
     2    0.0000    1.6449    1.6957    0.0660    0.0000   90.0000    0.0050     1     2     3     1
     3    0.0000    1.7109    1.6957    0.0660    0.0000   90.0000    0.0050     2     3     4     1
     4    0.0000    1.7769    1.6957    0.0660    0.0000   90.0000    0.0050     3     4     5     1
     5    0.0000    1.8429    1.6957    0.0660    0.0000   90.0000    0.0050     4     5     6     1
     6    0.0000    1.9089    1.6957    0.0660    0.0000   90.0000    0.0050     5     6     7     1
     7    0.0000    1.9748    1.6957    0.0660    0.0000   90.0000    0.0050     6     7     8     1
     8    0.0000    2.0408    1.6957    0.0660    0.0000   90.0000    0.0050     7     8     9     1
     9    0.0000    2.1068    1.6957    0.0660    0.0000   90.0000    0.0050     8     9    10     1
    10    0.0000    2.1728    1.6957    0.0660    0.0000   90.0000    0.0050     9    10    11     1
    11    0.0000    2.2388    1.6957    0.0660    0.0000   90.0000    0.0050    10    11    12     1
    12    0.0000    2.3048    1.6957    0.0660    0.0000   90.0000    0.0050    11    12    13     1
    13    0.0000    2.3708    1.6957    0.0660    0.0000   90.0000    0.0050    12    13    14     1
    14    0.0000    2.4368    1.6957    0.0660    0.0000   90.0000    0.0050    13    14    15     1
    15    0.0000    2.5028    1.6957    0.0660    0.0000   90.0000    0.0050    14    15     0     1
    16    0.6695    1.6085    1.6957    0.0618    0.0000   90.0000    0.0050     0    16    17     2
    17    0.6695    1.6703    1.6957    0.0618    0.0000   90.0000    0.0050    16    17    18     2
    18    0.6695    1.7320    1.6957    0.0618    0.0000   90.0000    0.0050    17    18    19     2
    19    0.6695    1.7938    1.6957    0.0618    0.0000   90.0000    0.0050    18    19    20     2
    20    0.6695    1.8556    1.6957    0.0618    0.0000   90.0000    0.0050    19    20    21     2
    21    0.6695    1.9173    1.6957    0.0618    0.0000   90.0000    0.0050    20    21    22     2
    22    0.6695    1.9791    1.6957    0.0618    0.0000   90.0000    0.0050    21    22    23     2
    23    0.6695    2.0408    1.6957    0.0618    0.0000   90.0000    0.0050    22    23    24     2
    24    0.6695    2.1026    1.6957    0.0618    0.0000   90.0000    0.0050    23    24    25     2
    25    0.6695    2.1644    1.6957    0.0618    0.0000   90.0000    0.0050    24    25    26     2
    26    0.6695    2.2261    1.6957    0.0618    0.0000   90.0000    0.0050    25    26    27     2
    27    0.6695    2.2879    1.6957    0.0618    0.0000   90.0000    0.0050    26    27    28     2
    28    0.6695    2.3496    1.6957    0.0618    0.0000   90.0000    0.0050    27    28    29     2
    29    0.6695    2.4114    1.6957    0.0618    0.0000   90.0000    0.0050    28    29    30     2
    30    0.6695    2.4732    1.6957    0.0618    0.0000   90.0000    0.0050    29    30     0     2
    31    1.4061    1.6155    1.6957    0.0608    0.0000   90.0000    0.0050     0    31    32     3
    32    1.4061    1.6763    1.6957    0.0608    0.0000   90.0000    0.0050    31    32    33     3
    33    1.4061    1.7370    1.6957    0.0608    0.0000   90.0000    0.0050    32    33    34     3
    34    1.4061    1.7978    1.6957    0.0608    0.0000   90.0000    0.0050    33    34    35     3
    35    1.4061    1.8585    1.6957    0.0608    0.0000   90.0000    0.0050    34    35    36     3
    36    1.4061    1.9193    1.6957    0.0608    0.0000   90.0000    0.0050    35    36    37     3
    37    1.4061    1.9801    1.6957    0.0608    0.0000   90.0000    0.0050    36    37    38     3
    38    1.4061    2.0408    1.6957    0.0608    0.0000   90.0000    0.0050    37    38    39     3
    39    1.4061    2.1016    1.6957    0.0608    0.0000   90.0000    0.0050    38    39    40     3
    40    1.4061    2.1624    1.6957    0.0608    0.0000   90.0000    0.0050    39    40    41     3
    41    1.4061    2.2231    1.6957    0.0608    0.0000   90.0000    0.0050    40    41    42     3
    42    1.4061    2.2839    1.6957    0.0608    0.0000   90.0000    0.0050    41    42    43     3
    43    1.4061    2.3447    1.6957    0.0608    0.0000   90.0000    0.0050    42    43    44     3
    44    1.4061    2.4054    1.6957    0.0608    0.0000   90.0000    0.0050    43    44    45     3
    45    1.4061    2.4662    1.6957    0.0608    0.0000   90.0000    0.0050    44    45     0     3
    46    2.0245    1.6200    1.6957    0.0601    0.0000   90.0000    0.0050     0    46    47     4
    47    2.0245    1.6801    1.6957    0.0601    0.0000   90.0000    0.0050    46    47    48     4
    48    2.0245    1.7402    1.6957    0.0601    0.0000   90.0000    0.0050    47    48    49     4
    49    2.0245    1.8004    1.6957    0.0601    0.0000   90.0000    0.0050    48    49    50     4
    50    2.0245    1.8605    1.6957    0.0601    0.0000   90.0000    0.0050    49    50    51     4
    51    2.0245    1.9206    1.6957    0.0601    0.0000   90.0000    0.0050    50    51    52     4
    52    2.0245    1.9807    1.6957    0.0601    0.0000   90.0000    0.0050    51    52    53     4
    53    2.0245    2.0408    1.6957    0.0601    0.0000   90.0000    0.0050    52    53    54     4
    54    2.0245    2.1010    1.6957    0.0601    0.0000   90.0000    0.0050    53    54    55     4
    55    2.0245    2.1611    1.6957    0.0601    0.0000   90.0000    0.0050    54    55    56     4
    56    2.0245    2.2212    1.6957    0.0601    0.0000   90.0000    0.0050    55    56    57     4
    57    2.0245    2.2813    1.6957    0.0601    0.0000   90.0000    0.0050    56    57    58     4
    58    2.0245    2.3414    1.6957    0.0601    0.0000   90.0000    0.0050    57    58    59     4
    59    2.0245    2.4016    1.6957    0.0601    0.0000   90.0000    0.0050    58    59    60     4
    60    2.0245    2.4617    1.6957    0.0601    0.0000   90.0000    0.0050    59    60     0     4
    61    2.9529    1.6328    1.6957    0.0583    0.0000   90.0000    0.0050     0    61    62     5
    62    2.9529    1.6911    1.6957    0.0583    0.0000   90.0000    0.0050    61    62    63     5
    63    2.9529    1.7494    1.6957    0.0583    0.0000   90.0000    0.0050    62    63    64     5
    64    2.9529    1.8077    1.6957    0.0583    0.0000   90.0000    0.0050    63    64    65     5
    65    2.9529    1.8660    1.6957    0.0583    0.0000   90.0000    0.0050    64    65    66     5
    66    2.9529    1.9243    1.6957    0.0583    0.0000   90.0000    0.0050    65    66    67     5
    67    2.9529    1.9826    1.6957    0.0583    0.0000   90.0000    0.0050    66    67    68     5
    68    2.9529    2.0408    1.6957    0.0583    0.0000   90.0000    0.0050    67    68    69     5
    69    2.9529    2.0991    1.6957    0.0583    0.0000   90.0000    0.0050    68    69    70     5
    70    2.9529    2.1574    1.6957    0.0583    0.0000   90.0000    0.0050    69    70    71     5
    71    2.9529    2.2157    1.6957    0.0583    0.0000   90.0000    0.0050    70    71    72     5
    72    2.9529    2.2740    1.6957    0.0583    0.0000   90.0000    0.0050    71    72    73     5
    73    2.9529    2.3323    1.6957    0.0583    0.0000   90.0000    0.0050    72    73    74     5
    74    2.9529    2.3906    1.6957    0.0583    0.0000   90.0000    0.0050    73    74    75     5
    75    2.9529    2.4489    1.6957    0.0583    0.0000   90.0000    0.0050    74    75     0     5
    76    3.6497    1.6148    1.6957    0.0609    0.0000   90.0000    0.0050     0    76    77     6
    77    3.6497    1.6757    1.6957    0.0609    0.0000   90.0000    0.0050    76    77    78     6
    78    3.6497    1.7365    1.6957    0.0609    0.0000   90.0000    0.0050    77    78    79     6
    79    3.6497    1.7974    1.6957    0.0609    0.0000   90.0000    0.0050    78    79    80     6
    80    3.6497    1.8583    1.6957    0.0609    0.0000   90.0000    0.0050    79    80    81     6
    81    3.6497    1.9191    1.6957    0.0609    0.0000   90.0000    0.0050    80    81    82     6
    82    3.6497    1.9800    1.6957    0.0609    0.0000   90.0000    0.0050    81    82    83     6
    83    3.6497    2.0408    1.6957    0.0609    0.0000   90.0000    0.0050    82    83    84     6
    84    3.6497    2.1017    1.6957    0.0609    0.0000   90.0000    0.0050    83    84    85     6
    85    3.6497    2.1626    1.6957    0.0609    0.0000   90.0000    0.0050    84    85    86     6
    86    3.6497    2.2234    1.6957    0.0609    0.0000   90.0000    0.0050    85    86    87     6
    87    3.6497    2.2843    1.6957    0.0609    0.0000   90.0000    0.0050    86    87    88     6
    88    3.6497    2.3451    1.6957    0.0609    0.0000   90.0000    0.0050    87    88    89     6
    89    3.6497    2.4060    1.6957    0.0609    0.0000   90.0000    0.0050    88    89    90     6
    90    3.6497    2.4669    1.6957    0.0609    0.0000   90.0000    0.0050    89    90     0     6
    91    0.0000    1.5789   -1.6957    0.0660    0.0000   90.0000    0.0050     0    91    92   101
    92    0.0000    1.6449   -1.6957    0.0660    0.0000   90.0000    0.0050    91    92    93   101
    93    0.0000    1.7109   -1.6957    0.0660    0.0000   90.0000    0.0050    92    93    94   101
    94    0.0000    1.7769   -1.6957    0.0660    0.0000   90.0000    0.0050    93    94    95   101
    95    0.0000    1.8429   -1.6957    0.0660    0.0000   90.0000    0.0050    94    95    96   101
    96    0.0000    1.9089   -1.6957    0.0660    0.0000   90.0000    0.0050    95    96    97   101
    97    0.0000    1.9748   -1.6957    0.0660    0.0000   90.0000    0.0050    96    97    98   101
    98    0.0000    2.0408   -1.6957    0.0660    0.0000   90.0000    0.0050    97    98    99   101
    99    0.0000    2.1068   -1.6957    0.0660    0.0000   90.0000    0.0050    98    99   100   101
   100    0.0000    2.1728   -1.6957    0.0660    0.0000   90.0000    0.0050    99   100   101   101
   101    0.0000    2.2388   -1.6957    0.0660    0.0000   90.0000    0.0050   100   101   102   101
   102    0.0000    2.3048   -1.6957    0.0660    0.0000   90.0000    0.0050   101   102   103   101
   103    0.0000    2.3708   -1.6957    0.0660    0.0000   90.0000    0.0050   102   103   104   101
   104    0.0000    2.4368   -1.6957    0.0660    0.0000   90.0000    0.0050   103   104   105   101
   105    0.0000    2.5028   -1.6957    0.0660    0.0000   90.0000    0.0050   104   105     0   101
   106    0.6695    1.6085   -1.6957    0.0618    0.0000   90.0000    0.0050     0   106   107   102
   107    0.6695    1.6703   -1.6957    0.0618    0.0000   90.0000    0.0050   106   107   108   102
   108    0.6695    1.7320   -1.6957    0.0618    0.0000   90.0000    0.0050   107   108   109   102
   109    0.6695    1.7938   -1.6957    0.0618    0.0000   90.0000    0.0050   108   109   110   102
   110    0.6695    1.8556   -1.6957    0.0618    0.0000   90.0000    0.0050   109   110   111   102
   111    0.6695    1.9173   -1.6957    0.0618    0.0000   90.0000    0.0050   110   111   112   102
   112    0.6695    1.9791   -1.6957    0.0618    0.0000   90.0000    0.0050   111   112   113   102
   113    0.6695    2.0408   -1.6957    0.0618    0.0000   90.0000    0.0050   112   113   114   102
   114    0.6695    2.1026   -1.6957    0.0618    0.0000   90.0000    0.0050   113   114   115   102
   115    0.6695    2.1644   -1.6957    0.0618    0.0000   90.0000    0.0050   114   115   116   102
   116    0.6695    2.2261   -1.6957    0.0618    0.0000   90.0000    0.0050   115   116   117   102
   117    0.6695    2.2879   -1.6957    0.0618    0.0000   90.0000    0.0050   116   117   118   102
   118    0.6695    2.3496   -1.6957    0.0618    0.0000   90.0000    0.0050   117   118   119   102
   119    0.6695    2.4114   -1.6957    0.0618    0.0000   90.0000    0.0050   118   119   120   102
   120    0.6695    2.4732   -1.6957    0.0618    0.0000   90.0000    0.0050   119   120     0   102
   121    1.4061    1.6155   -1.6957    0.0608    0.0000   90.0000    0.0050     0   121   122   103
   122    1.4061    1.6763   -1.6957    0.0608    0.0000   90.0000    0.0050   121   122   123   103
   123    1.4061    1.7370   -1.6957    0.0608    0.0000   90.0000    0.0050   122   123   124   103
   124    1.4061    1.7978   -1.6957    0.0608    0.0000   90.0000    0.0050   123   124   125   103
   125    1.4061    1.8585   -1.6957    0.0608    0.0000   90.0000    0.0050   124   125   126   103
   126    1.4061    1.9193   -1.6957    0.0608    0.0000   90.0000    0.0050   125   126   127   103
   127    1.4061    1.9801   -1.6957    0.0608    0.0000   90.0000    0.0050   126   127   128   103
   128    1.4061    2.0408   -1.6957    0.0608    0.0000   90.0000    0.0050   127   128   129   103
   129    1.4061    2.1016   -1.6957    0.0608    0.0000   90.0000    0.0050   128   129   130   103
   130    1.4061    2.1624   -1.6957    0.0608    0.0000   90.0000    0.0050   129   130   131   103
   131    1.4061    2.2231   -1.6957    0.0608    0.0000   90.0000    0.0050   130   131   132   103
   132    1.4061    2.2839   -1.6957    0.0608    0.0000   90.0000    0.0050   131   132   133   103
   133    1.4061    2.3447   -1.6957    0.0608    0.0000   90.0000    0.0050   132   133   134   103
   134    1.4061    2.4054   -1.6957    0.0608    0.0000   90.0000    0.0050   133   134   135   103
   135    1.4061    2.4662   -1.6957    0.0608    0.0000   90.0000    0.0050   134   135     0   103
   136    2.0245    1.6200   -1.6957    0.0601    0.0000   90.0000    0.0050     0   136   137   104
   137    2.0245    1.6801   -1.6957    0.0601    0.0000   90.0000    0.0050   136   137   138   104
   138    2.0245    1.7402   -1.6957    0.0601    0.0000   90.0000    0.0050   137   138   139   104
   139    2.0245    1.8004   -1.6957    0.0601    0.0000   90.0000    0.0050   138   139   140   104
   140    2.0245    1.8605   -1.6957    0.0601    0.0000   90.0000    0.0050   139   140   141   104
   141    2.0245    1.9206   -1.6957    0.0601    0.0000   90.0000    0.0050   140   141   142   104
   142    2.0245    1.9807   -1.6957    0.0601    0.0000   90.0000    0.0050   141   142   143   104
   143    2.0245    2.0408   -1.6957    0.0601    0.0000   90.0000    0.0050   142   143   144   104
   144    2.0245    2.1010   -1.6957    0.0601    0.0000   90.0000    0.0050   143   144   145   104
   145    2.0245    2.1611   -1.6957    0.0601    0.0000   90.0000    0.0050   144   145   146   104
   146    2.0245    2.2212   -1.6957    0.0601    0.0000   90.0000    0.0050   145   146   147   104
   147    2.0245    2.2813   -1.6957    0.0601    0.0000   90.0000    0.0050   146   147   148   104
   148    2.0245    2.3414   -1.6957    0.0601    0.0000   90.0000    0.0050   147   148   149   104
   149    2.0245    2.4016   -1.6957    0.0601    0.0000   90.0000    0.0050   148   149   150   104
   150    2.0245    2.4617   -1.6957    0.0601    0.0000   90.0000    0.0050   149   150     0   104
   151    2.9529    1.6328   -1.6957    0.0583    0.0000   90.0000    0.0050     0   151   152   105
   152    2.9529    1.6911   -1.6957    0.0583    0.0000   90.0000    0.0050   151   152   153   105
   153    2.9529    1.7494   -1.6957    0.0583    0.0000   90.0000    0.0050   152   153   154   105
   154    2.9529    1.8077   -1.6957    0.0583    0.0000   90.0000    0.0050   153   154   155   105
   155    2.9529    1.8660   -1.6957    0.0583    0.0000   90.0000    0.0050   154   155   156   105
   156    2.9529    1.9243   -1.6957    0.0583    0.0000   90.0000    0.0050   155   156   157   105
   157    2.9529    1.9826   -1.6957    0.0583    0.0000   90.0000    0.0050   156   157   158   105
   158    2.9529    2.0408   -1.6957    0.0583    0.0000   90.0000    0.0050   157   158   159   105
   159    2.9529    2.0991   -1.6957    0.0583    0.0000   90.0000    0.0050   158   159   160   105
   160    2.9529    2.1574   -1.6957    0.0583    0.0000   90.0000    0.0050   159   160   161   105
   161    2.9529    2.2157   -1.6957    0.0583    0.0000   90.0000    0.0050   160   161   162   105
   162    2.9529    2.2740   -1.6957    0.0583    0.0000   90.0000    0.0050   161   162   163   105
   163    2.9529    2.3323   -1.6957    0.0583    0.0000   90.0000    0.0050   162   163   164   105
   164    2.9529    2.3906   -1.6957    0.0583    0.0000   90.0000    0.0050   163   164   165   105
   165    2.9529    2.4489   -1.6957    0.0583    0.0000   90.0000    0.0050   164   165     0   105
   166    3.6497    1.6148   -1.6957    0.0609    0.0000   90.0000    0.0050     0   166   167   106
   167    3.6497    1.6757   -1.6957    0.0609    0.0000   90.0000    0.0050   166   167   168   106
   168    3.6497    1.7365   -1.6957    0.0609    0.0000   90.0000    0.0050   167   168   169   106
   169    3.6497    1.7974   -1.6957    0.0609    0.0000   90.0000    0.0050   168   169   170   106
   170    3.6497    1.8583   -1.6957    0.0609    0.0000   90.0000    0.0050   169   170   171   106
   171    3.6497    1.9191   -1.6957    0.0609    0.0000   90.0000    0.0050   170   171   172   106
   172    3.6497    1.9800   -1.6957    0.0609    0.0000   90.0000    0.0050   171   172   173   106
   173    3.6497    2.0408   -1.6957    0.0609    0.0000   90.0000    0.0050   172   173   174   106
   174    3.6497    2.1017   -1.6957    0.0609    0.0000   90.0000    0.0050   173   174   175   106
   175    3.6497    2.1626   -1.6957    0.0609    0.0000   90.0000    0.0050   174   175   176   106
   176    3.6497    2.2234   -1.6957    0.0609    0.0000   90.0000    0.0050   175   176   177   106
   177    3.6497    2.2843   -1.6957    0.0609    0.0000   90.0000    0.0050   176   177   178   106
   178    3.6497    2.3451   -1.6957    0.0609    0.0000   90.0000    0.0050   177   178   179   106
   179    3.6497    2.4060   -1.6957    0.0609    0.0000   90.0000    0.0050   178   179   180   106
   180    3.6497    2.4669   -1.6957    0.0609    0.0000   90.0000    0.0050   179   180     0   106
   181    0.0000   -1.5789    1.6957    0.0660    0.0000  -90.0000    0.0050     0   181   182   201
   182    0.0000   -1.6449    1.6957    0.0660    0.0000  -90.0000    0.0050   181   182   183   201
   183    0.0000   -1.7109    1.6957    0.0660    0.0000  -90.0000    0.0050   182   183   184   201
   184    0.0000   -1.7769    1.6957    0.0660    0.0000  -90.0000    0.0050   183   184   185   201
   185    0.0000   -1.8429    1.6957    0.0660    0.0000  -90.0000    0.0050   184   185   186   201
   186    0.0000   -1.9089    1.6957    0.0660    0.0000  -90.0000    0.0050   185   186   187   201
   187    0.0000   -1.9748    1.6957    0.0660    0.0000  -90.0000    0.0050   186   187   188   201
   188    0.0000   -2.0408    1.6957    0.0660    0.0000  -90.0000    0.0050   187   188   189   201
   189    0.0000   -2.1068    1.6957    0.0660    0.0000  -90.0000    0.0050   188   189   190   201
   190    0.0000   -2.1728    1.6957    0.0660    0.0000  -90.0000    0.0050   189   190   191   201
   191    0.0000   -2.2388    1.6957    0.0660    0.0000  -90.0000    0.0050   190   191   192   201
   192    0.0000   -2.3048    1.6957    0.0660    0.0000  -90.0000    0.0050   191   192   193   201
   193    0.0000   -2.3708    1.6957    0.0660    0.0000  -90.0000    0.0050   192   193   194   201
   194    0.0000   -2.4368    1.6957    0.0660    0.0000  -90.0000    0.0050   193   194   195   201
   195    0.0000   -2.5028    1.6957    0.0660    0.0000  -90.0000    0.0050   194   195     0   201
   196    0.6695   -1.6085    1.6957    0.0618    0.0000  -90.0000    0.0050     0   196   197   202
   197    0.6695   -1.6703    1.6957    0.0618    0.0000  -90.0000    0.0050   196   197   198   202
   198    0.6695   -1.7320    1.6957    0.0618    0.0000  -90.0000    0.0050   197   198   199   202
   199    0.6695   -1.7938    1.6957    0.0618    0.0000  -90.0000    0.0050   198   199   200   202
   200    0.6695   -1.8556    1.6957    0.0618    0.0000  -90.0000    0.0050   199   200   201   202
   201    0.6695   -1.9173    1.6957    0.0618    0.0000  -90.0000    0.0050   200   201   202   202
   202    0.6695   -1.9791    1.6957    0.0618    0.0000  -90.0000    0.0050   201   202   203   202
   203    0.6695   -2.0408    1.6957    0.0618    0.0000  -90.0000    0.0050   202   203   204   202
   204    0.6695   -2.1026    1.6957    0.0618    0.0000  -90.0000    0.0050   203   204   205   202
   205    0.6695   -2.1644    1.6957    0.0618    0.0000  -90.0000    0.0050   204   205   206   202
   206    0.6695   -2.2261    1.6957    0.0618    0.0000  -90.0000    0.0050   205   206   207   202
   207    0.6695   -2.2879    1.6957    0.0618    0.0000  -90.0000    0.0050   206   207   208   202
   208    0.6695   -2.3496    1.6957    0.0618    0.0000  -90.0000    0.0050   207   208   209   202
   209    0.6695   -2.4114    1.6957    0.0618    0.0000  -90.0000    0.0050   208   209   210   202
   210    0.6695   -2.4732    1.6957    0.0618    0.0000  -90.0000    0.0050   209   210     0   202
   211    1.4061   -1.6155    1.6957    0.0608    0.0000  -90.0000    0.0050     0   211   212   203
   212    1.4061   -1.6763    1.6957    0.0608    0.0000  -90.0000    0.0050   211   212   213   203
   213    1.4061   -1.7370    1.6957    0.0608    0.0000  -90.0000    0.0050   212   213   214   203
   214    1.4061   -1.7978    1.6957    0.0608    0.0000  -90.0000    0.0050   213   214   215   203
   215    1.4061   -1.8585    1.6957    0.0608    0.0000  -90.0000    0.0050   214   215   216   203
   216    1.4061   -1.9193    1.6957    0.0608    0.0000  -90.0000    0.0050   215   216   217   203
   217    1.4061   -1.9801    1.6957    0.0608    0.0000  -90.0000    0.0050   216   217   218   203
   218    1.4061   -2.0408    1.6957    0.0608    0.0000  -90.0000    0.0050   217   218   219   203
   219    1.4061   -2.1016    1.6957    0.0608    0.0000  -90.0000    0.0050   218   219   220   203
   220    1.4061   -2.1624    1.6957    0.0608    0.0000  -90.0000    0.0050   219   220   221   203
   221    1.4061   -2.2231    1.6957    0.0608    0.0000  -90.0000    0.0050   220   221   222   203
   222    1.4061   -2.2839    1.6957    0.0608    0.0000  -90.0000    0.0050   221   222   223   203
   223    1.4061   -2.3447    1.6957    0.0608    0.0000  -90.0000    0.0050   222   223   224   203
   224    1.4061   -2.4054    1.6957    0.0608    0.0000  -90.0000    0.0050   223   224   225   203
   225    1.4061   -2.4662    1.6957    0.0608    0.0000  -90.0000    0.0050   224   225     0   203
   226    2.0245   -1.6200    1.6957    0.0601    0.0000  -90.0000    0.0050     0   226   227   204
   227    2.0245   -1.6801    1.6957    0.0601    0.0000  -90.0000    0.0050   226   227   228   204
   228    2.0245   -1.7402    1.6957    0.0601    0.0000  -90.0000    0.0050   227   228   229   204
   229    2.0245   -1.8004    1.6957    0.0601    0.0000  -90.0000    0.0050   228   229   230   204
   230    2.0245   -1.8605    1.6957    0.0601    0.0000  -90.0000    0.0050   229   230   231   204
   231    2.0245   -1.9206    1.6957    0.0601    0.0000  -90.0000    0.0050   230   231   232   204
   232    2.0245   -1.9807    1.6957    0.0601    0.0000  -90.0000    0.0050   231   232   233   204
   233    2.0245   -2.0408    1.6957    0.0601    0.0000  -90.0000    0.0050   232   233   234   204
   234    2.0245   -2.1010    1.6957    0.0601    0.0000  -90.0000    0.0050   233   234   235   204
   235    2.0245   -2.1611    1.6957    0.0601    0.0000  -90.0000    0.0050   234   235   236   204
   236    2.0245   -2.2212    1.6957    0.0601    0.0000  -90.0000    0.0050   235   236   237   204
   237    2.0245   -2.2813    1.6957    0.0601    0.0000  -90.0000    0.0050   236   237   238   204
   238    2.0245   -2.3414    1.6957    0.0601    0.0000  -90.0000    0.0050   237   238   239   204
   239    2.0245   -2.4016    1.6957    0.0601    0.0000  -90.0000    0.0050   238   239   240   204
   240    2.0245   -2.4617    1.6957    0.0601    0.0000  -90.0000    0.0050   239   240     0   204
   241    2.9529   -1.6328    1.6957    0.0583    0.0000  -90.0000    0.0050     0   241   242   205
   242    2.9529   -1.6911    1.6957    0.0583    0.0000  -90.0000    0.0050   241   242   243   205
   243    2.9529   -1.7494    1.6957    0.0583    0.0000  -90.0000    0.0050   242   243   244   205
   244    2.9529   -1.8077    1.6957    0.0583    0.0000  -90.0000    0.0050   243   244   245   205
   245    2.9529   -1.8660    1.6957    0.0583    0.0000  -90.0000    0.0050   244   245   246   205
   246    2.9529   -1.9243    1.6957    0.0583    0.0000  -90.0000    0.0050   245   246   247   205
   247    2.9529   -1.9826    1.6957    0.0583    0.0000  -90.0000    0.0050   246   247   248   205
   248    2.9529   -2.0408    1.6957    0.0583    0.0000  -90.0000    0.0050   247   248   249   205
   249    2.9529   -2.0991    1.6957    0.0583    0.0000  -90.0000    0.0050   248   249   250   205
   250    2.9529   -2.1574    1.6957    0.0583    0.0000  -90.0000    0.0050   249   250   251   205
   251    2.9529   -2.2157    1.6957    0.0583    0.0000  -90.0000    0.0050   250   251   252   205
   252    2.9529   -2.2740    1.6957    0.0583    0.0000  -90.0000    0.0050   251   252   253   205
   253    2.9529   -2.3323    1.6957    0.0583    0.0000  -90.0000    0.0050   252   253   254   205
   254    2.9529   -2.3906    1.6957    0.0583    0.0000  -90.0000    0.0050   253   254   255   205
   255    2.9529   -2.4489    1.6957    0.0583    0.0000  -90.0000    0.0050   254   255     0   205
   256    3.6497   -1.6148    1.6957    0.0609    0.0000  -90.0000    0.0050     0   256   257   206
   257    3.6497   -1.6757    1.6957    0.0609    0.0000  -90.0000    0.0050   256   257   258   206
   258    3.6497   -1.7365    1.6957    0.0609    0.0000  -90.0000    0.0050   257   258   259   206
   259    3.6497   -1.7974    1.6957    0.0609    0.0000  -90.0000    0.0050   258   259   260   206
   260    3.6497   -1.8583    1.6957    0.0609    0.0000  -90.0000    0.0050   259   260   261   206
   261    3.6497   -1.9191    1.6957    0.0609    0.0000  -90.0000    0.0050   260   261   262   206
   262    3.6497   -1.9800    1.6957    0.0609    0.0000  -90.0000    0.0050   261   262   263   206
   263    3.6497   -2.0408    1.6957    0.0609    0.0000  -90.0000    0.0050   262   263   264   206
   264    3.6497   -2.1017    1.6957    0.0609    0.0000  -90.0000    0.0050   263   264   265   206
   265    3.6497   -2.1626    1.6957    0.0609    0.0000  -90.0000    0.0050   264   265   266   206
   266    3.6497   -2.2234    1.6957    0.0609    0.0000  -90.0000    0.0050   265   266   267   206
   267    3.6497   -2.2843    1.6957    0.0609    0.0000  -90.0000    0.0050   266   267   268   206
   268    3.6497   -2.3451    1.6957    0.0609    0.0000  -90.0000    0.0050   267   268   269   206
   269    3.6497   -2.4060    1.6957    0.0609    0.0000  -90.0000    0.0050   268   269   270   206
   270    3.6497   -2.4669    1.6957    0.0609    0.0000  -90.0000    0.0050   269   270     0   206
   271    0.0000   -1.5789   -1.6957    0.0660    0.0000  -90.0000    0.0050     0   271   272   301
   272    0.0000   -1.6449   -1.6957    0.0660    0.0000  -90.0000    0.0050   271   272   273   301
   273    0.0000   -1.7109   -1.6957    0.0660    0.0000  -90.0000    0.0050   272   273   274   301
   274    0.0000   -1.7769   -1.6957    0.0660    0.0000  -90.0000    0.0050   273   274   275   301
   275    0.0000   -1.8429   -1.6957    0.0660    0.0000  -90.0000    0.0050   274   275   276   301
   276    0.0000   -1.9089   -1.6957    0.0660    0.0000  -90.0000    0.0050   275   276   277   301
   277    0.0000   -1.9748   -1.6957    0.0660    0.0000  -90.0000    0.0050   276   277   278   301
   278    0.0000   -2.0408   -1.6957    0.0660    0.0000  -90.0000    0.0050   277   278   279   301
   279    0.0000   -2.1068   -1.6957    0.0660    0.0000  -90.0000    0.0050   278   279   280   301
   280    0.0000   -2.1728   -1.6957    0.0660    0.0000  -90.0000    0.0050   279   280   281   301
   281    0.0000   -2.2388   -1.6957    0.0660    0.0000  -90.0000    0.0050   280   281   282   301
   282    0.0000   -2.3048   -1.6957    0.0660    0.0000  -90.0000    0.0050   281   282   283   301
   283    0.0000   -2.3708   -1.6957    0.0660    0.0000  -90.0000    0.0050   282   283   284   301
   284    0.0000   -2.4368   -1.6957    0.0660    0.0000  -90.0000    0.0050   283   284   285   301
   285    0.0000   -2.5028   -1.6957    0.0660    0.0000  -90.0000    0.0050   284   285     0   301
   286    0.6695   -1.6085   -1.6957    0.0618    0.0000  -90.0000    0.0050     0   286   287   302
   287    0.6695   -1.6703   -1.6957    0.0618    0.0000  -90.0000    0.0050   286   287   288   302
   288    0.6695   -1.7320   -1.6957    0.0618    0.0000  -90.0000    0.0050   287   288   289   302
   289    0.6695   -1.7938   -1.6957    0.0618    0.0000  -90.0000    0.0050   288   289   290   302
   290    0.6695   -1.8556   -1.6957    0.0618    0.0000  -90.0000    0.0050   289   290   291   302
   291    0.6695   -1.9173   -1.6957    0.0618    0.0000  -90.0000    0.0050   290   291   292   302
   292    0.6695   -1.9791   -1.6957    0.0618    0.0000  -90.0000    0.0050   291   292   293   302
   293    0.6695   -2.0408   -1.6957    0.0618    0.0000  -90.0000    0.0050   292   293   294   302
   294    0.6695   -2.1026   -1.6957    0.0618    0.0000  -90.0000    0.0050   293   294   295   302
   295    0.6695   -2.1644   -1.6957    0.0618    0.0000  -90.0000    0.0050   294   295   296   302
   296    0.6695   -2.2261   -1.6957    0.0618    0.0000  -90.0000    0.0050   295   296   297   302
   297    0.6695   -2.2879   -1.6957    0.0618    0.0000  -90.0000    0.0050   296   297   298   302
   298    0.6695   -2.3496   -1.6957    0.0618    0.0000  -90.0000    0.0050   297   298   299   302
   299    0.6695   -2.4114   -1.6957    0.0618    0.0000  -90.0000    0.0050   298   299   300   302
   300    0.6695   -2.4732   -1.6957    0.0618    0.0000  -90.0000    0.0050   299   300     0   302
   301    1.4061   -1.6155   -1.6957    0.0608    0.0000  -90.0000    0.0050     0   301   302   303
   302    1.4061   -1.6763   -1.6957    0.0608    0.0000  -90.0000    0.0050   301   302   303   303
   303    1.4061   -1.7370   -1.6957    0.0608    0.0000  -90.0000    0.0050   302   303   304   303
   304    1.4061   -1.7978   -1.6957    0.0608    0.0000  -90.0000    0.0050   303   304   305   303
   305    1.4061   -1.8585   -1.6957    0.0608    0.0000  -90.0000    0.0050   304   305   306   303
   306    1.4061   -1.9193   -1.6957    0.0608    0.0000  -90.0000    0.0050   305   306   307   303
   307    1.4061   -1.9801   -1.6957    0.0608    0.0000  -90.0000    0.0050   306   307   308   303
   308    1.4061   -2.0408   -1.6957    0.0608    0.0000  -90.0000    0.0050   307   308   309   303
   309    1.4061   -2.1016   -1.6957    0.0608    0.0000  -90.0000    0.0050   308   309   310   303
   310    1.4061   -2.1624   -1.6957    0.0608    0.0000  -90.0000    0.0050   309   310   311   303
   311    1.4061   -2.2231   -1.6957    0.0608    0.0000  -90.0000    0.0050   310   311   312   303
   312    1.4061   -2.2839   -1.6957    0.0608    0.0000  -90.0000    0.0050   311   312   313   303
   313    1.4061   -2.3447   -1.6957    0.0608    0.0000  -90.0000    0.0050   312   313   314   303
   314    1.4061   -2.4054   -1.6957    0.0608    0.0000  -90.0000    0.0050   313   314   315   303
   315    1.4061   -2.4662   -1.6957    0.0608    0.0000  -90.0000    0.0050   314   315     0   303
   316    2.0245   -1.6200   -1.6957    0.0601    0.0000  -90.0000    0.0050     0   316   317   304
   317    2.0245   -1.6801   -1.6957    0.0601    0.0000  -90.0000    0.0050   316   317   318   304
   318    2.0245   -1.7402   -1.6957    0.0601    0.0000  -90.0000    0.0050   317   318   319   304
   319    2.0245   -1.8004   -1.6957    0.0601    0.0000  -90.0000    0.0050   318   319   320   304
   320    2.0245   -1.8605   -1.6957    0.0601    0.0000  -90.0000    0.0050   319   320   321   304
   321    2.0245   -1.9206   -1.6957    0.0601    0.0000  -90.0000    0.0050   320   321   322   304
   322    2.0245   -1.9807   -1.6957    0.0601    0.0000  -90.0000    0.0050   321   322   323   304
   323    2.0245   -2.0408   -1.6957    0.0601    0.0000  -90.0000    0.0050   322   323   324   304
   324    2.0245   -2.1010   -1.6957    0.0601    0.0000  -90.0000    0.0050   323   324   325   304
   325    2.0245   -2.1611   -1.6957    0.0601    0.0000  -90.0000    0.0050   324   325   326   304
   326    2.0245   -2.2212   -1.6957    0.0601    0.0000  -90.0000    0.0050   325   326   327   304
   327    2.0245   -2.2813   -1.6957    0.0601    0.0000  -90.0000    0.0050   326   327   328   304
   328    2.0245   -2.3414   -1.6957    0.0601    0.0000  -90.0000    0.0050   327   328   329   304
   329    2.0245   -2.4016   -1.6957    0.0601    0.0000  -90.0000    0.0050   328   329   330   304
   330    2.0245   -2.4617   -1.6957    0.0601    0.0000  -90.0000    0.0050   329   330     0   304
   331    2.9529   -1.6328   -1.6957    0.0583    0.0000  -90.0000    0.0050     0   331   332   305
   332    2.9529   -1.6911   -1.6957    0.0583    0.0000  -90.0000    0.0050   331   332   333   305
   333    2.9529   -1.7494   -1.6957    0.0583    0.0000  -90.0000    0.0050   332   333   334   305
   334    2.9529   -1.8077   -1.6957    0.0583    0.0000  -90.0000    0.0050   333   334   335   305
   335    2.9529   -1.8660   -1.6957    0.0583    0.0000  -90.0000    0.0050   334   335   336   305
   336    2.9529   -1.9243   -1.6957    0.0583    0.0000  -90.0000    0.0050   335   336   337   305
   337    2.9529   -1.9826   -1.6957    0.0583    0.0000  -90.0000    0.0050   336   337   338   305
   338    2.9529   -2.0408   -1.6957    0.0583    0.0000  -90.0000    0.0050   337   338   339   305
   339    2.9529   -2.0991   -1.6957    0.0583    0.0000  -90.0000    0.0050   338   339   340   305
   340    2.9529   -2.1574   -1.6957    0.0583    0.0000  -90.0000    0.0050   339   340   341   305
   341    2.9529   -2.2157   -1.6957    0.0583    0.0000  -90.0000    0.0050   340   341   342   305
   342    2.9529   -2.2740   -1.6957    0.0583    0.0000  -90.0000    0.0050   341   342   343   305
   343    2.9529   -2.3323   -1.6957    0.0583    0.0000  -90.0000    0.0050   342   343   344   305
   344    2.9529   -2.3906   -1.6957    0.0583    0.0000  -90.0000    0.0050   343   344   345   305
   345    2.9529   -2.4489   -1.6957    0.0583    0.0000  -90.0000    0.0050   344   345     0   305
   346    3.6497   -1.6148   -1.6957    0.0609    0.0000  -90.0000    0.0050     0   346   347   306
   347    3.6497   -1.6757   -1.6957    0.0609    0.0000  -90.0000    0.0050   346   347   348   306
   348    3.6497   -1.7365   -1.6957    0.0609    0.0000  -90.0000    0.0050   347   348   349   306
   349    3.6497   -1.7974   -1.6957    0.0609    0.0000  -90.0000    0.0050   348   349   350   306
   350    3.6497   -1.8583   -1.6957    0.0609    0.0000  -90.0000    0.0050   349   350   351   306
   351    3.6497   -1.9191   -1.6957    0.0609    0.0000  -90.0000    0.0050   350   351   352   306
   352    3.6497   -1.9800   -1.6957    0.0609    0.0000  -90.0000    0.0050   351   352   353   306
   353    3.6497   -2.0408   -1.6957    0.0609    0.0000  -90.0000    0.0050   352   353   354   306
   354    3.6497   -2.1017   -1.6957    0.0609    0.0000  -90.0000    0.0050   353   354   355   306
   355    3.6497   -2.1626   -1.6957    0.0609    0.0000  -90.0000    0.0050   354   355   356   306
   356    3.6497   -2.2234   -1.6957    0.0609    0.0000  -90.0000    0.0050   355   356   357   306
   357    3.6497   -2.2843   -1.6957    0.0609    0.0000  -90.0000    0.0050   356   357   358   306
   358    3.6497   -2.3451   -1.6957    0.0609    0.0000  -90.0000    0.0050   357   358   359   306
   359    3.6497   -2.4060   -1.6957    0.0609    0.0000  -90.0000    0.0050   358   359   360   306
   360    3.6497   -2.4669   -1.6957    0.0609    0.0000  -90.0000    0.0050   359   360     0   306



*****  DATA CARD N0.   1 FR   0     1     0     0  1.44100E+02  0.00000E+00  0.00000E+00  0.00000E+00  0.00000E+00  0.00000E+00
*****  DATA CARD N0.   2 EK   0     0     0     0  0.00000E+00  0.00000E+00  0.00000E+00  0.00000E+00  0.00000E+00  0.00000E+00
*****  DATA CARD N0.   3 LD   5     1     0     0  2.70100E+07  0.00000E+00  0.00000E+00  0.00000E+00  0.00000E+00  0.00000E+00
*****  DATA CARD N0.   4 LD   5     2     0     0  2.70100E+07  0.00000E+00  0.00000E+00  0.00000E+00  0.00000E+00  0.00000E+00
*****  DATA CARD N0.   5 LD   5     3     0     0  2.70100E+07  0.00000E+00  0.00000E+00  0.00000E+00  0.00000E+00  0.00000E+00
*****  DATA CARD N0.   6 LD   5     4     0     0  2.70100E+07  0.00000E+00  0.00000E+00  0.00000E+00  0.00000E+00  0.00000E+00
*****  DATA CARD N0.   7 LD   5     5     0     0  2.70100E+07  0.00000E+00  0.00000E+00  0.00000E+00  0.00000E+00  0.00000E+00
*****  DATA CARD N0.   8 LD   5     6     0     0  2.70100E+07  0.00000E+00  0.00000E+00  0.00000E+00  0.00000E+00  0.00000E+00
*****  DATA CARD N0.   9 LD   5   101     0     0  2.70100E+07  0.00000E+00  0.00000E+00  0.00000E+00  0.00000E+00  0.00000E+00
*****  DATA CARD N0.  10 LD   5   102     0     0  2.70100E+07  0.00000E+00  0.00000E+00  0.00000E+00  0.00000E+00  0.00000E+00
*****  DATA CARD N0.  11 LD   5   103     0     0  2.70100E+07  0.00000E+00  0.00000E+00  0.00000E+00  0.00000E+00  0.00000E+00
*****  DATA CARD N0.  12 LD   5   104     0     0  2.70100E+07  0.00000E+00  0.00000E+00  0.00000E+00  0.00000E+00  0.00000E+00
*****  DATA CARD N0.  13 LD   5   105     0     0  2.70100E+07  0.00000E+00  0.00000E+00  0.00000E+00  0.00000E+00  0.00000E+00
*****  DATA CARD N0.  14 LD   5   106     0     0  2.70100E+07  0.00000E+00  0.00000E+00  0.00000E+00  0.00000E+00  0.00000E+00
*****  DATA CARD N0.  15 LD   5   201     0     0  2.70100E+07  0.00000E+00  0.00000E+00  0.00000E+00  0.00000E+00  0.00000E+00
*****  DATA CARD N0.  16 LD   5   202     0     0  2.70100E+07  0.00000E+00  0.00000E+00  0.00000E+00  0.00000E+00  0.00000E+00
*****  DATA CARD N0.  17 LD   5   203     0     0  2.70100E+07  0.00000E+00  0.00000E+00  0.00000E+00  0.00000E+00  0.00000E+00
*****  DATA CARD N0.  18 LD   5   204     0     0  2.70100E+07  0.00000E+00  0.00000E+00  0.00000E+00  0.00000E+00  0.00000E+00
*****  DATA CARD N0.  19 LD   5   205     0     0  2.70100E+07  0.00000E+00  0.00000E+00  0.00000E+00  0.00000E+00  0.00000E+00
*****  DATA CARD N0.  20 LD   5   206     0     0  2.70100E+07  0.00000E+00  0.00000E+00  0.00000E+00  0.00000E+00  0.00000E+00
*****  DATA CARD N0.  21 LD   5   301     0     0  2.70100E+07  0.00000E+00  0.00000E+00  0.00000E+00  0.00000E+00  0.00000E+00
*****  DATA CARD N0.  22 LD   5   302     0     0  2.70100E+07  0.00000E+00  0.00000E+00  0.00000E+00  0.00000E+00  0.00000E+00
*****  DATA CARD N0.  23 LD   5   303     0     0  2.70100E+07  0.00000E+00  0.00000E+00  0.00000E+00  0.00000E+00  0.00000E+00
*****  DATA CARD N0.  24 LD   5   304     0     0  2.70100E+07  0.00000E+00  0.00000E+00  0.00000E+00  0.00000E+00  0.00000E+00
*****  DATA CARD N0.  25 LD   5   305     0     0  2.70100E+07  0.00000E+00  0.00000E+00  0.00000E+00  0.00000E+00  0.00000E+00
*****  DATA CARD N0.  26 LD   5   306     0     0  2.70100E+07  0.00000E+00  0.00000E+00  0.00000E+00  0.00000E+00  0.00000E+00
*****  DATA CARD N0.  27 KH   0     0     0     0  1.50000E+00  0.00000E+00  0.00000E+00  0.00000E+00  0.00000E+00  0.00000E+00
*****  DATA CARD N0.  28 EX   0     2     8     0  1.00000E+00  0.00000E+00  0.00000E+00  0.00000E+00  0.00000E+00  0.00000E+00
*****  DATA CARD N0.  29 EX   0   102     8     0  1.00000E+00  0.00000E+00  0.00000E+00  0.00000E+00  0.00000E+00  0.00000E+00
*****  DATA CARD N0.  30 EX   0   202     8     0 -1.00000E+00  0.00000E+00  0.00000E+00  0.00000E+00  0.00000E+00  0.00000E+00
*****  DATA CARD N0.  31 EX   0   302     8     0 -1.00000E+00  0.00000E+00  0.00000E+00  0.00000E+00  0.00000E+00  0.00000E+00
*****  DATA CARD N0.  32 PT  -1     0     0     0  0.00000E+00  0.00000E+00  0.00000E+00  0.00000E+00  0.00000E+00  0.00000E+00
*****  DATA CARD N0.  33 RP   0     1     1  1001  9.00000E+01  0.00000E+00  0.00000E+00  0.00000E+00  0.00000E+00  0.00000E+00


                               --------- FREQUENCY --------
                               FREQUENCY=  1.4410E+02 MHZ
                               WAVELENGTH= 2.0805E+00 METERS


                        APPROXIMATE INTEGRATION EMPLOYED FOR SEGMENTS
                        THAT ARE MORE THAN 1.500 WAVELENGTHS APART
                        THE EXTENDED THIN WIRE KERNEL WILL BE USED



                          ------ STRUCTURE IMPEDANCE LOADING ------

  LOCATION        RESISTANCE  INDUCTANCE  CAPACITANCE     IMPEDANCE (OHMS)   CONDUCTIVITY  CIRCUIT
  ITAG FROM THRU     OHMS       HENRYS      FARADS       REAL     IMAGINARY   MHOS/METER      TYPE

     1                                                                        2.7010E+07     WIRE  
     2                                                                        2.7010E+07     WIRE  
     3                                                                        2.7010E+07     WIRE  
     4                                                                        2.7010E+07     WIRE  
     5                                                                        2.7010E+07     WIRE  
     6                                                                        2.7010E+07     WIRE  
   101                                                                        2.7010E+07     WIRE  
   102                                                                        2.7010E+07     WIRE  
   103                                                                        2.7010E+07     WIRE  
   104                                                                        2.7010E+07     WIRE  
   105                                                                        2.7010E+07     WIRE  
   106                                                                        2.7010E+07     WIRE  
   201                                                                        2.7010E+07     WIRE  
   202                                                                        2.7010E+07     WIRE  
   203                                                                        2.7010E+07     WIRE  
   204                                                                        2.7010E+07     WIRE  
   205                                                                        2.7010E+07     WIRE  
   206                                                                        2.7010E+07     WIRE  
   301                                                                        2.7010E+07     WIRE  
   302                                                                        2.7010E+07     WIRE  
   303                                                                        2.7010E+07     WIRE  
   304                                                                        2.7010E+07     WIRE  
   305                                                                        2.7010E+07     WIRE  
   306                                                                        2.7010E+07     WIRE  


                            -------- ANTENNA ENVIRONMENT --------
                            FREE SPACE



                             ---------- MATRIX TIMING ----------
                               FILL= 270 msec  FACTOR: 140 msec


                        --------- ANTENNA INPUT PARAMETERS ---------
  TAG   SEG       VOLTAGE (VOLTS)         CURRENT (AMPS)         IMPEDANCE (OHMS)        ADMITTANCE (MHOS)     POWER
  NO.   NO.     REAL      IMAGINARY     REAL      IMAGINARY     REAL      IMAGINARY    REAL       IMAGINARY   (WATTS)
    2    23  1.0000E+00  0.0000E+00  2.6259E-02 -3.1851E-04  3.8077E+01  4.6185E-01  2.6259E-02 -3.1851E-04  1.3129E-02
  102   113  1.0000E+00  0.0000E+00  2.6259E-02 -3.1851E-04  3.8077E+01  4.6185E-01  2.6259E-02 -3.1851E-04  1.3129E-02
  202   203 -1.0000E+00  0.0000E+00 -2.6259E-02  3.1851E-04  3.8077E+01  4.6185E-01  2.6259E-02 -3.1851E-04  1.3129E-02
  302   293 -1.0000E+00  0.0000E+00 -2.6259E-02  3.1851E-04  3.8077E+01  4.6185E-01  2.6259E-02 -3.1851E-04  1.3129E-02


                               ---------- POWER BUDGET ---------
                               INPUT POWER   =  5.2518E-02 Watts
                               RADIATED POWER=  5.2015E-02 Watts
                               STRUCTURE LOSS=  5.0241E-04 Watts
                               NETWORK LOSS  =  0.0000E+00 Watts
                               EFFICIENCY    =   99.04 Percent


                             ---------- RADIATION PATTERNS -----------

 ---- ANGLES -----     ----- POWER GAINS -----       ---- POLARIZATION ----   ---- E(THETA) ----    ----- E(PHI) ------
  THETA      PHI       VERTC    HORIZ    TOTAL       AXIAL      TILT  SENSE   MAGNITUDE    PHASE    MAGNITUDE     PHASE
 DEGREES   DEGREES        DB       DB       DB       RATIO   DEGREES            VOLTS/M   DEGREES     VOLTS/M   DEGREES
   90.00      0.00   -999.99    19.58    19.58      0.0000     90.00 LINEAR  0.0000E+00      0.00  1.6914E+01    -45.65



*****  DATA CARD N0.  34 RP   0     1     1  1001  9.00000E+01  1.80000E+02  0.00000E+00  0.00000E+00  0.00000E+00  0.00000E+00


                             ---------- RADIATION PATTERNS -----------

 ---- ANGLES -----     ----- POWER GAINS -----       ---- POLARIZATION ----   ---- E(THETA) ----    ----- E(PHI) ------
  THETA      PHI       VERTC    HORIZ    TOTAL       AXIAL      TILT  SENSE   MAGNITUDE    PHASE    MAGNITUDE     PHASE
 DEGREES   DEGREES        DB       DB       DB       RATIO   DEGREES            VOLTS/M   DEGREES     VOLTS/M   DEGREES
   90.00    180.00   -999.99     4.24     4.24      0.0000    -90.00 LINEAR  1.5062E-22   -113.56  2.8915E+00     66.44



*****  DATA CARD N0.  35 RP   0     1   361  1001  9.00000E+01  0.00000E+00  1.00000E+00  1.00000E+00  0.00000E+00  0.00000E+00


                             ---------- RADIATION PATTERNS -----------

 ---- ANGLES -----     ----- POWER GAINS -----       ---- POLARIZATION ----   ---- E(THETA) ----    ----- E(PHI) ------
  THETA      PHI       VERTC    HORIZ    TOTAL       AXIAL      TILT  SENSE   MAGNITUDE    PHASE    MAGNITUDE     PHASE
 DEGREES   DEGREES        DB       DB       DB       RATIO   DEGREES            VOLTS/M   DEGREES     VOLTS/M   DEGREES
   90.00      0.00   -999.99    19.58    19.58      0.0000     90.00 LINEAR  0.0000E+00      0.00  1.6914E+01    -45.65
   90.00      1.00   -999.99    19.53    19.53      0.0000    -90.00 LINEAR  1.4967E-12    134.30  1.6802E+01    -45.70
   90.00      2.00   -999.99    19.35    19.35      0.0000    -90.00 LINEAR  2.9345E-12    134.16  1.6466E+01    -45.84
   90.00      3.00   -999.99    19.05    19.05      0.0000    -90.00 LINEAR  4.2564E-12    133.92  1.5914E+01    -46.08
   90.00      4.00   -999.99    18.63    18.63      0.0000    -90.00 LINEAR  5.4092E-12    133.58  1.5157E+01    -46.42
   90.00      5.00   -999.99    18.07    18.07      0.0000    -90.00 LINEAR  6.3452E-12    133.15  1.4211E+01    -46.85
   90.00      6.00   -999.99    17.36    17.36      0.0000    -90.00 LINEAR  7.0238E-12    132.62  1.3095E+01    -47.38
   90.00      7.00   -999.99    16.48    16.48      0.0000    -90.00 LINEAR  7.4129E-12    132.00  1.1830E+01    -48.00
   90.00      8.00   -999.99    15.39    15.39      0.0000    -90.00 LINEAR  7.4897E-12    131.28  1.0442E+01    -48.72
   90.00      9.00   -999.99    14.06    14.06      0.0000    -90.00 LINEAR  7.2417E-12    130.46  8.9591E+00    -49.54
   90.00     10.00   -999.99    12.41    12.41      0.0000    -90.00 LINEAR  6.6669E-12    129.55  7.4087E+00    -50.45
   90.00     11.00   -999.99    10.32    10.32      0.0000    -90.00 LINEAR  5.7740E-12    128.55  5.8206E+00    -51.45
   90.00     12.00   -999.99     7.53     7.53      0.0000    -90.00 LINEAR  4.5822E-12    127.45  4.2241E+00    -52.55
   90.00     13.00   -999.99     3.48     3.48      0.0000    -90.00 LINEAR  3.1201E-12    126.25  2.6482E+00    -53.75
   90.00     14.00   -999.99    -3.99    -3.99      0.0000    -90.00 LINEAR  1.4256E-12    124.98  1.1204E+00    -55.02
   90.00     15.00   -999.99   -14.51   -14.51      0.0000    -90.00 LINEAR  4.5639E-13    -56.57  3.3375E-01    123.43
   90.00     16.00   -999.99    -0.42    -0.42      0.0000    -90.00 LINEAR  2.4745E-12    -57.96  1.6909E+00    122.04
   90.00     17.00   -999.99     4.36     4.36      0.0000    -90.00 LINEAR  4.5731E-12    -59.54  2.9309E+00    120.46
   90.00     18.00   -999.99     7.14     7.14      0.0000    -90.00 LINEAR  6.6938E-12    -61.22  4.0368E+00    118.78
   90.00     19.00   -999.99     8.99     8.99      0.0000    -90.00 LINEAR  8.7778E-12    -63.00  4.9952E+00    117.00
   90.00     20.00   -999.99    10.28    10.28      0.0000    -90.00 LINEAR  1.0767E-11    -64.88  5.7966E+00    115.12
   90.00     21.00   -999.99    11.19    11.19      0.0000    -90.00 LINEAR  1.2607E-11    -66.86  6.4354E+00    113.14
   90.00     22.00   -999.99    11.81    11.81      0.0000    -90.00 LINEAR  1.4247E-11    -68.94  6.9098E+00    111.06
   90.00     23.00   -999.99    12.19    12.19      0.0000    -90.00 LINEAR  1.5644E-11    -71.13  7.2218E+00    108.87
   90.00     24.00   -999.99    12.38    12.38      0.0000    -90.00 LINEAR  1.6762E-11    -73.42  7.3771E+00    106.58
   90.00     25.00   -999.99    12.38    12.38      0.0000    -90.00 LINEAR  1.7573E-11    -75.81  7.3845E+00    104.19
   90.00     26.00   -999.99    12.23    12.23      0.0000    -90.00 LINEAR  1.8060E-11    -78.32  7.2556E+00    101.68
   90.00     27.00   -999.99    11.93    11.93      0.0000    -90.00 LINEAR  1.8214E-11    -80.95  7.0046E+00     99.05
   90.00     28.00   -999.99    11.47    11.47      0.0000    -90.00 LINEAR  1.8038E-11    -83.69  6.6476E+00     96.31
   90.00     29.00   -999.99    10.87    10.87      0.0000    -90.00 LINEAR  1.7545E-11    -86.57  6.2021E+00     93.43
   90.00     30.00   -999.99    10.12    10.12      0.0000    -90.00 LINEAR  1.6755E-11    -89.59  5.6866E+00     90.41
   90.00     31.00   -999.99     9.20     9.20      0.0000    -90.00 LINEAR  1.5700E-11    -92.78  5.1199E+00     87.22
   90.00     32.00   -999.99     8.12     8.12      0.0000    -90.00 LINEAR  1.4416E-11    -96.14  4.5206E+00     83.86
   90.00     33.00   -999.99     6.85     6.85      0.0000    -90.00 LINEAR  1.2948E-11    -99.73  3.9067E+00     80.27
   90.00     34.00   -999.99     5.38     5.38      0.0000    -90.00 LINEAR  1.1344E-11   -103.59  3.2954E+00     76.41
   90.00     35.00   -999.99     3.65     3.65      0.0000    -90.00 LINEAR  9.6558E-12   -107.83  2.7021E+00     72.17
   90.00     36.00   -999.99     1.63     1.63      0.0000    -90.00 LINEAR  7.9381E-12   -112.58  2.1409E+00     67.42
   90.00     37.00   -999.99    -0.77    -0.77      0.0000    -90.00 LINEAR  6.2450E-12   -118.17  1.6239E+00     61.83
   90.00     38.00   -999.99    -3.68    -3.68      0.0000    -90.00 LINEAR  4.6321E-12   -125.20  1.1617E+00     54.80
   90.00     39.00   -999.99    -7.31    -7.31      0.0000    -90.00 LINEAR  3.1601E-12   -135.19  7.6465E-01     44.81
   90.00     40.00   -999.99   -11.97   -11.97      0.0000    -90.00 LINEAR  1.9152E-12   -152.67  4.4723E-01     27.33
   90.00     41.00   -999.99   -16.97   -16.97      0.0000    -90.00 LINEAR  1.1163E-12    168.52  2.5163E-01    -11.48
   90.00     42.00   -999.99   -16.98   -16.98      0.0000    -90.00 LINEAR  1.1547E-12    114.02  2.5128E-01    -65.98
   90.00     43.00   -999.99   -14.37   -14.37      0.0000    -90.00 LINEAR  1.6151E-12     85.79  3.3937E-01    -94.21
   90.00     44.00   -999.99   -12.83   -12.83      0.0000    -90.00 LINEAR  1.9965E-12     71.89  4.0511E-01   -108.11
   90.00     45.00   -999.99   -12.39   -12.39      0.0000    -90.00 LINEAR  2.1753E-12     62.93  4.2624E-01   -117.07
   90.00     46.00   -999.99   -12.89   -12.89      0.0000    -90.00 LINEAR  2.1262E-12     56.02  4.0233E-01   -123.98
   90.00     47.00   -999.99   -14.39   -14.39      0.0000    -90.00 LINEAR  1.8516E-12     50.09  3.3834E-01   -129.91
   90.00     48.00   -999.99   -17.33   -17.33      0.0000    -90.00 LINEAR  1.3673E-12     44.64  2.4124E-01   -135.36
   90.00     49.00   -999.99   -23.48   -23.48      0.0000    -90.00 LINEAR  6.9754E-13     39.15  1.1881E-01   -140.85
   90.00     50.00   -999.99   -38.52   -38.52      0.0000    -90.00 LINEAR  1.2802E-13   -138.50  2.1049E-02     41.50
   90.00     51.00   -999.99   -20.37   -20.37      0.0000    -90.00 LINEAR  1.0716E-12   -148.37  1.7004E-01     31.63
   90.00     52.00   -999.99   -14.85   -14.85      0.0000    -90.00 LINEAR  2.0967E-12   -153.21  3.2099E-01     26.79
   90.00     53.00   -999.99   -11.60   -11.60      0.0000    -90.00 LINEAR  3.1622E-12   -157.74  4.6692E-01     22.26
   90.00     54.00   -999.99    -9.39    -9.39      0.0000    -90.00 LINEAR  4.2270E-12   -162.14  6.0177E-01     17.86
   90.00     55.00   -999.99    -7.83    -7.83      0.0000    -90.00 LINEAR  5.2509E-12   -166.45  7.2044E-01     13.55
   90.00     56.00   -999.99    -6.72    -6.72      0.0000    -90.00 LINEAR  6.1957E-12   -170.67  8.1887E-01      9.33
   90.00     57.00   -999.99    -5.95    -5.95      0.0000    -90.00 LINEAR  7.0261E-12   -174.81  8.9407E-01      5.19
   90.00     58.00   -999.99    -5.48    -5.48      0.0000    -90.00 LINEAR  7.7111E-12   -178.84  9.4416E-01      1.16
   90.00     59.00   -999.99    -5.26    -5.26      0.0000    -90.00 LINEAR  8.2245E-12    177.26  9.6833E-01     -2.74
   90.00     60.00   -999.99    -5.27    -5.27      0.0000    -90.00 LINEAR  8.5458E-12    173.54  9.6679E-01     -6.46
   90.00     61.00   -999.99    -5.51    -5.51      0.0000    -90.00 LINEAR  8.6610E-12    170.06  9.4072E-01     -9.94
   90.00     62.00   -999.99    -5.97    -5.97      0.0000    -90.00 LINEAR  8.5630E-12    166.92  8.9215E-01    -13.08
   90.00     63.00   -999.99    -6.66    -6.66      0.0000    -90.00 LINEAR  8.2526E-12    164.26  8.2394E-01    -15.74
   90.00     64.00   -999.99    -7.60    -7.60      0.0000    -90.00 LINEAR  7.7400E-12    162.34  7.3971E-01    -17.66
   90.00     65.00   -999.99    -8.80    -8.80      0.0000    -90.00 LINEAR  7.0475E-12    161.53  6.4394E-01    -18.47
   90.00     66.00   -999.99   -10.30   -10.30      0.0000    -90.00 LINEAR  6.2159E-12    162.51  5.4229E-01    -17.49
   90.00     67.00   -999.99   -12.07   -12.07      0.0000    -90.00 LINEAR  5.3187E-12    166.49  4.4238E-01    -13.51
   90.00     68.00   -999.99   -13.96   -13.96      0.0000    -90.00 LINEAR  4.4933E-12    175.38  3.5572E-01     -4.62
   90.00     69.00   -999.99   -15.44   -15.44      0.0000    -90.00 LINEAR  3.9858E-12   -169.12  2.9980E-01     10.88
   90.00     70.00   -999.99   -15.67   -15.67      0.0000    -90.00 LINEAR  4.0956E-12   -149.71  2.9209E-01     30.29
   90.00     71.00   -999.99   -14.60   -14.60      0.0000    -90.00 LINEAR  4.8973E-12   -133.91  3.3042E-01     46.09
   90.00     72.00   -999.99   -13.07   -13.07      0.0000    -90.00 LINEAR  6.1883E-12   -124.79  3.9399E-01     55.21
   90.00     73.00   -999.99   -11.65   -11.65      0.0000    -90.00 LINEAR  7.7507E-12   -120.77  4.6432E-01     59.23
   90.00     74.00   -999.99   -10.48   -10.48      0.0000    -90.00 LINEAR  9.4465E-12   -119.90  5.3077E-01     60.10
   90.00     75.00   -999.99    -9.60    -9.60      0.0000    -90.00 LINEAR  1.1192E-11   -120.93  5.8760E-01     59.07
   90.00     76.00   -999.99    -8.97    -8.97      0.0000    -90.00 LINEAR  1.2929E-11   -123.17  6.3167E-01     56.83
   90.00     77.00   -999.99    -8.57    -8.57      0.0000    -90.00 LINEAR  1.4618E-11   -126.21  6.6128E-01     53.79
   90.00     78.00   -999.99    -8.39    -8.39      0.0000    -90.00 LINEAR  1.6223E-11   -129.80  6.7568E-01     50.20
   90.00     79.00   -999.99    -8.40    -8.40      0.0000    -90.00 LINEAR  1.7717E-11   -133.79  6.7479E-01     46.21
   90.00     80.00   -999.99    -8.60    -8.60      0.0000    -90.00 LINEAR  1.9076E-11   -138.08  6.5908E-01     41.92
   90.00     81.00   -999.99    -9.00    -9.00      0.0000    -90.00 LINEAR  2.0281E-11   -142.59  6.2941E-01     37.41
   90.00     82.00   -999.99    -9.61    -9.61      0.0000    -90.00 LINEAR  2.1316E-11   -147.28  5.8700E-01     32.72
   90.00     83.00   -999.99   -10.44   -10.44      0.0000    -90.00 LINEAR  2.2169E-11   -152.10  5.3336E-01     27.90
   90.00     84.00   -999.99   -11.54   -11.54      0.0000    -90.00 LINEAR  2.2830E-11   -157.04  4.7019E-01     22.96
   90.00     85.00   -999.99   -12.95   -12.95      0.0000    -90.00 LINEAR  2.3295E-11   -162.06  3.9935E-01     17.94
   90.00     86.00   -999.99   -14.80   -14.80      0.0000    -90.00 LINEAR  2.3560E-11   -167.16  3.2282E-01     12.84
   90.00     87.00   -999.99   -17.28   -17.28      0.0000    -90.00 LINEAR  2.3625E-11   -172.32  2.4261E-01      7.68
   90.00     88.00   -999.99   -20.86   -20.86      0.0000    -90.00 LINEAR  2.3494E-11   -177.52  1.6076E-01      2.48
   90.00     89.00   -999.99   -27.00   -27.00      0.0000    -90.00 LINEAR  2.3171E-11    177.25  7.9250E-02     -2.75
   90.00     90.00   -999.99  -999.99  -999.99      0.0000      0.00         2.2664E-11    171.99  2.2664E-11    171.99
   90.00     91.00   -999.99   -27.46   -27.46      0.0000     90.00 LINEAR  2.1985E-11    166.71  7.5194E-02    166.71
   90.00     92.00   -999.99   -21.77   -21.77      0.0000     90.00 LINEAR  2.1144E-11    161.44  1.4468E-01    161.44
   90.00     93.00   -999.99   -18.66   -18.66      0.0000     90.00 LINEAR  2.0156E-11    156.18  2.0699E-01    156.18
   90.00     94.00   -999.99   -16.65   -16.65      0.0000     90.00 LINEAR  1.9037E-11    150.93  2.6085E-01    150.93
   90.00     95.00   -999.99   -15.29   -15.29      0.0000     90.00 LINEAR  1.7804E-11    145.73  3.0522E-01    145.73
   90.00     96.00   -999.99   -14.37   -14.37      0.0000     90.00 LINEAR  1.6476E-11    140.59  3.3931E-01    140.59
   90.00     97.00   -999.99   -13.79   -13.79      0.0000     90.00 LINEAR  1.5071E-11    135.53  3.6259E-01    135.53
   90.00     98.00   -999.99   -13.51   -13.51      0.0000     90.00 LINEAR  1.3610E-11    130.60  3.7480E-01    130.60
   90.00     99.00   -999.99   -13.48   -13.48      0.0000     90.00 LINEAR  1.2115E-11    125.85  3.7598E-01    125.85
   90.00    100.00   -999.99   -13.70   -13.70      0.0000     90.00 LINEAR  1.0606E-11    121.35  3.6645E-01    121.35
   90.00    101.00   -999.99   -14.18   -14.18      0.0000     90.00 LINEAR  9.1069E-12    117.23  3.4687E-01    117.23
   90.00    102.00   -999.99   -14.93   -14.93      0.0000     90.00 LINEAR  7.6398E-12    113.68  3.1820E-01    113.68
   90.00    103.00   -999.99   -15.98   -15.98      0.0000     90.00 LINEAR  6.2293E-12    111.04  2.8180E-01    111.04
   90.00    104.00   -999.99   -17.39   -17.39      0.0000     90.00 LINEAR  4.9042E-12    109.93  2.3960E-01    109.93
   90.00    105.00   -999.99   -19.21   -19.21      0.0000     90.00 LINEAR  3.7030E-12    111.60  1.9442E-01    111.60
   90.00    106.00   -999.99   -21.39   -21.39      0.0000     90.00 LINEAR  2.6909E-12    118.56  1.5119E-01    118.56
   90.00    107.00   -999.99   -23.43   -23.43      0.0000     90.00 LINEAR  1.9964E-12    134.81  1.1960E-01    134.81
   90.00    108.00   -999.99   -23.80   -23.80      0.0000     90.00 LINEAR  1.7993E-12    159.33  1.1456E-01    159.33
   90.00    109.00   -999.99   -22.08   -22.08      0.0000     90.00 LINEAR  2.0691E-12    178.81  1.3960E-01    178.81
   90.00    110.00   -999.99   -19.83   -19.83      0.0000     90.00 LINEAR  2.5373E-12   -172.09  1.8095E-01   -172.09
   90.00    111.00   -999.99   -17.86   -17.86      0.0000     90.00 LINEAR  3.0173E-12   -169.63  2.2695E-01   -169.63
   90.00    112.00   -999.99   -16.30   -16.30      0.0000     90.00 LINEAR  3.4323E-12   -170.75  2.7173E-01   -170.75
   90.00    113.00   -999.99   -15.09   -15.09      0.0000     90.00 LINEAR  3.7538E-12   -173.93  3.1222E-01   -173.93
   90.00    114.00   -999.99   -14.19   -14.19      0.0000     90.00 LINEAR  3.9729E-12   -178.41  3.4660E-01   -178.41
   90.00    115.00   -999.99   -13.53   -13.53      0.0000     90.00 LINEAR  4.0905E-12    176.20  3.7376E-01    176.20
   90.00    116.00   -999.99   -13.09   -13.09      0.0000     90.00 LINEAR  4.1130E-12    170.10  3.9308E-01    170.10
   90.00    117.00   -999.99   -12.85   -12.85      0.0000     90.00 LINEAR  4.0501E-12    163.40  4.0437E-01    163.40
   90.00    118.00   -999.99   -12.77   -12.77      0.0000     90.00 LINEAR  3.9138E-12    156.17  4.0777E-01    156.17
   90.00    119.00   -999.99   -12.86   -12.86      0.0000     90.00 LINEAR  3.7172E-12    148.44  4.0374E-01    148.44
   90.00    120.00   -999.99   -13.09   -13.09      0.0000     90.00 LINEAR  3.4735E-12    140.23  3.9296E-01    140.23
   90.00    121.00   -999.99   -13.47   -13.47      0.0000     90.00 LINEAR  3.1954E-12    131.57  3.7621E-01    131.57
   90.00    122.00   -999.99   -13.99   -13.99      0.0000     90.00 LINEAR  2.8939E-12    122.48  3.5433E-01    122.48
   90.00    123.00   -999.99   -14.66   -14.66      0.0000     90.00 LINEAR  2.5775E-12    113.03  3.2799E-01    113.03
   90.00    124.00   -999.99   -15.51   -15.51      0.0000     90.00 LINEAR  2.2518E-12    103.30  2.9762E-01    103.30
   90.00    125.00   -999.99   -16.57   -16.57      0.0000     90.00 LINEAR  1.9189E-12     93.41  2.6328E-01     93.41
   90.00    126.00   -999.99   -17.95   -17.95      0.0000     90.00 LINEAR  1.5778E-12     83.48  2.2462E-01     83.48
   90.00    127.00   -999.99   -19.83   -19.83      0.0000     90.00 LINEAR  1.2249E-12     73.68  1.8087E-01     73.68
   90.00    128.00   -999.99   -22.64   -22.64      0.0000     90.00 LINEAR  8.5561E-13     64.23  1.3099E-01     64.23
   90.00    129.00   -999.99   -27.62   -27.62      0.0000     90.00 LINEAR  4.6510E-13     55.62  7.3800E-02     55.62
   90.00    130.00   -999.99   -46.40   -46.40      0.0000     90.00 LINEAR  5.1667E-14     61.28  8.4950E-03     61.28
   90.00    131.00   -999.99   -28.49   -28.49      0.0000     90.00 LINEAR  3.9199E-13   -146.02  6.6769E-02   -146.02
   90.00    132.00   -999.99   -21.39   -21.39      0.0000     90.00 LINEAR  8.5730E-13   -153.03  1.5125E-01   -153.03
   90.00    133.00   -999.99   -17.19   -17.19      0.0000     90.00 LINEAR  1.3422E-12   -160.41  2.4525E-01   -160.41
   90.00    134.00   -999.99   -14.15   -14.15      0.0000     90.00 LINEAR  1.8389E-12   -167.54  3.4797E-01   -167.54
   90.00    135.00   -999.99   -11.76   -11.76      0.0000     90.00 LINEAR  2.3374E-12   -174.34  4.5800E-01   -174.34
   90.00    136.00   -999.99    -9.81    -9.81      0.0000     90.00 LINEAR  2.8255E-12    179.20  5.7332E-01    179.20
   90.00    137.00   -999.99    -8.19    -8.19      0.0000     90.00 LINEAR  3.2901E-12    173.06  6.9134E-01    173.06
   90.00    138.00   -999.99    -6.82    -6.82      0.0000     90.00 LINEAR  3.7174E-12    167.23  8.0898E-01    167.23
   90.00    139.00   -999.99    -5.68    -5.68      0.0000     90.00 LINEAR  4.0940E-12    161.68  9.2283E-01    161.68
   90.00    140.00   -999.99    -4.73    -4.73      0.0000     90.00 LINEAR  4.4075E-12    156.38  1.0292E+00    156.38
   90.00    141.00   -999.99    -3.96    -3.96      0.0000     90.00 LINEAR  4.6472E-12    151.33  1.1245E+00    151.33
   90.00    142.00   -999.99    -3.36    -3.36      0.0000     90.00 LINEAR  4.8045E-12    146.50  1.2050E+00    146.50
   90.00    143.00   -999.99    -2.92    -2.92      0.0000     90.00 LINEAR  4.8736E-12    141.87  1.2673E+00    141.87
   90.00    144.00   -999.99    -2.65    -2.65      0.0000     90.00 LINEAR  4.8517E-12    137.43  1.3085E+00    137.43
   90.00    145.00   -999.99    -2.53    -2.53      0.0000     90.00 LINEAR  4.7393E-12    133.17  1.3263E+00    133.17
   90.00    146.00   -999.99    -2.58    -2.58      0.0000     90.00 LINEAR  4.5401E-12    129.07  1.3189E+00    129.07
   90.00    147.00   -999.99    -2.80    -2.80      0.0000     90.00 LINEAR  4.2610E-12    125.13  1.2857E+00    125.13
   90.00    148.00   -999.99    -3.21    -3.21      0.0000     90.00 LINEAR  3.9116E-12    121.33  1.2266E+00    121.33
   90.00    149.00   -999.99    -3.82    -3.82      0.0000     90.00 LINEAR  3.5045E-12    117.67  1.1429E+00    117.67
   90.00    150.00   -999.99    -4.67    -4.67      0.0000     90.00 LINEAR  3.0540E-12    114.13  1.0365E+00    114.13
   90.00    151.00   -999.99    -5.80    -5.80      0.0000     90.00 LINEAR  2.5759E-12    110.70  9.1057E-01    110.70
   90.00    152.00   -999.99    -7.26    -7.26      0.0000     90.00 LINEAR  2.0868E-12    107.35  7.6905E-01    107.35
   90.00    153.00   -999.99    -9.18    -9.18      0.0000     90.00 LINEAR  1.6036E-12    104.05  6.1670E-01    104.05
   90.00    154.00   -999.99   -11.75   -11.75      0.0000     90.00 LINEAR  1.1424E-12    100.71  4.5895E-01    100.71
   90.00    155.00   -999.99   -15.39   -15.39      0.0000     90.00 LINEAR  7.1804E-13     97.09  3.0173E-01     97.09
   90.00    156.00   -999.99   -21.38   -21.38      0.0000     90.00 LINEAR  3.4386E-13     92.11  1.5133E-01     92.11
   90.00    157.00   -999.99   -40.00   -40.00      0.0000     90.00 LINEAR  3.8458E-14     51.80  1.7753E-02     51.80
   90.00    158.00   -999.99   -24.46   -24.46      0.0000     90.00 LINEAR  2.1907E-13    -82.06  1.0624E-01    -82.06
   90.00    159.00   -999.99   -18.96   -18.96      0.0000     90.00 LINEAR  3.9180E-13    -87.51  2.0000E-01    -87.51
   90.00    160.00   -999.99   -16.54   -16.54      0.0000     90.00 LINEAR  4.9093E-13    -90.69  2.6430E-01    -90.69
   90.00    161.00   -999.99   -15.59   -15.59      0.0000     90.00 LINEAR  5.1804E-13    -93.25  2.9480E-01    -93.25
   90.00    162.00   -999.99   -15.78   -15.78      0.0000     90.00 LINEAR  4.7811E-13    -95.51  2.8833E-01    -95.51
   90.00    163.00   -999.99   -17.27   -17.27      0.0000     90.00 LINEAR  3.7903E-13    -97.55  2.4293E-01    -97.55
   90.00    164.00   -999.99   -21.01   -21.01      0.0000     90.00 LINEAR  2.3111E-13    -99.40  1.5793E-01    -99.40
   90.00    165.00   -999.99   -34.34   -34.34      0.0000     90.00 LINEAR  4.6576E-14   -100.71  3.4061E-02   -100.71
   90.00    166.00   -999.99   -22.93   -22.93      0.0000     90.00 LINEAR  1.6108E-13     76.97  1.2660E-01     76.97
   90.00    167.00   -999.99   -14.86   -14.86      0.0000     90.00 LINEAR  3.7773E-13     75.57  3.2059E-01     75.57
   90.00    168.00   -999.99   -10.28   -10.28      0.0000     90.00 LINEAR  5.8929E-13     74.22  5.4324E-01     74.22
   90.00    169.00   -999.99    -7.04    -7.04      0.0000     90.00 LINEAR  7.8241E-13     72.97  7.8872E-01     72.97
   90.00    170.00   -999.99    -4.56    -4.56      0.0000     90.00 LINEAR  9.4510E-13     71.83  1.0503E+00     71.83
   90.00    171.00   -999.99    -2.57    -2.57      0.0000     90.00 LINEAR  1.0673E-12     70.81  1.3204E+00     70.81
   90.00    172.00   -999.99    -0.95    -0.95      0.0000     90.00 LINEAR  1.1413E-12     69.89  1.5912E+00     69.89
   90.00    173.00   -999.99     0.38     0.38      0.0000     90.00 LINEAR  1.1621E-12     69.08  1.8546E+00     69.08
   90.00    174.00   -999.99     1.47     1.47      0.0000     90.00 LINEAR  1.1277E-12     68.38  2.1024E+00     68.38
   90.00    175.00   -999.99     2.35     2.35      0.0000     90.00 LINEAR  1.0390E-12     67.79  2.3270E+00     67.79
   90.00    176.00   -999.99     3.05     3.05      0.0000     90.00 LINEAR  8.9978E-13     67.30  2.5214E+00     67.30
   90.00    177.00   -999.99     3.58     3.58      0.0000     90.00 LINEAR  7.1662E-13     66.93  2.6794E+00     66.93
   90.00    178.00   -999.99     3.95     3.95      0.0000     90.00 LINEAR  4.9828E-13     66.66  2.7960E+00     66.66
   90.00    179.00   -999.99     4.17     4.17      0.0000     90.00 LINEAR  2.5543E-13     66.50  2.8675E+00     66.50
   90.00    180.00   -999.99     4.24     4.24      0.0000    -90.00 LINEAR  1.5062E-22   -113.56  2.8915E+00     66.44
   90.00    181.00   -999.99     4.17     4.17      0.0000    -90.00 LINEAR  2.5543E-13   -113.50  2.8675E+00     66.50
   90.00    182.00   -999.99     3.95     3.95      0.0000    -90.00 LINEAR  4.9828E-13   -113.34  2.7960E+00     66.66
   90.00    183.00   -999.99     3.58     3.58      0.0000    -90.00 LINEAR  7.1662E-13   -113.07  2.6794E+00     66.93
   90.00    184.00   -999.99     3.05     3.05      0.0000    -90.00 LINEAR  8.9978E-13   -112.70  2.5214E+00     67.30
   90.00    185.00   -999.99     2.35     2.35      0.0000    -90.00 LINEAR  1.0390E-12   -112.21  2.3270E+00     67.79
   90.00    186.00   -999.99     1.47     1.47      0.0000    -90.00 LINEAR  1.1277E-12   -111.62  2.1024E+00     68.38
   90.00    187.00   -999.99     0.38     0.38      0.0000    -90.00 LINEAR  1.1621E-12   -110.92  1.8546E+00     69.08
   90.00    188.00   -999.99    -0.95    -0.95      0.0000    -90.00 LINEAR  1.1413E-12   -110.11  1.5912E+00     69.89
   90.00    189.00   -999.99    -2.57    -2.57      0.0000    -90.00 LINEAR  1.0673E-12   -109.19  1.3204E+00     70.81
   90.00    190.00   -999.99    -4.56    -4.56      0.0000    -90.00 LINEAR  9.4510E-13   -108.17  1.0503E+00     71.83
   90.00    191.00   -999.99    -7.04    -7.04      0.0000    -90.00 LINEAR  7.8241E-13   -107.03  7.8872E-01     72.97
   90.00    192.00   -999.99   -10.28   -10.28      0.0000    -90.00 LINEAR  5.8929E-13   -105.78  5.4324E-01     74.22
   90.00    193.00   -999.99   -14.86   -14.86      0.0000    -90.00 LINEAR  3.7773E-13   -104.43  3.2059E-01     75.57
   90.00    194.00   -999.99   -22.93   -22.93      0.0000    -90.00 LINEAR  1.6108E-13   -103.03  1.2660E-01     76.97
   90.00    195.00   -999.99   -34.34   -34.34      0.0000    -90.00 LINEAR  4.6576E-14     79.29  3.4061E-02   -100.71
   90.00    196.00   -999.99   -21.01   -21.01      0.0000    -90.00 LINEAR  2.3111E-13     80.60  1.5793E-01    -99.40
   90.00    197.00   -999.99   -17.27   -17.27      0.0000    -90.00 LINEAR  3.7903E-13     82.45  2.4293E-01    -97.55
   90.00    198.00   -999.99   -15.78   -15.78      0.0000    -90.00 LINEAR  4.7811E-13     84.49  2.8833E-01    -95.51
   90.00    199.00   -999.99   -15.59   -15.59      0.0000    -90.00 LINEAR  5.1804E-13     86.75  2.9480E-01    -93.25
   90.00    200.00   -999.99   -16.54   -16.54      0.0000    -90.00 LINEAR  4.9093E-13     89.31  2.6430E-01    -90.69
   90.00    201.00   -999.99   -18.96   -18.96      0.0000    -90.00 LINEAR  3.9180E-13     92.49  2.0000E-01    -87.51
   90.00    202.00   -999.99   -24.46   -24.46      0.0000    -90.00 LINEAR  2.1907E-13     97.94  1.0624E-01    -82.06
   90.00    203.00   -999.99   -40.00   -40.00      0.0000    -90.00 LINEAR  3.8458E-14   -128.20  1.7753E-02     51.80
   90.00    204.00   -999.99   -21.38   -21.38      0.0000    -90.00 LINEAR  3.4386E-13    -87.89  1.5133E-01     92.11
   90.00    205.00   -999.99   -15.39   -15.39      0.0000    -90.00 LINEAR  7.1804E-13    -82.91  3.0173E-01     97.09
   90.00    206.00   -999.99   -11.75   -11.75      0.0000    -90.00 LINEAR  1.1424E-12    -79.29  4.5895E-01    100.71
   90.00    207.00   -999.99    -9.18    -9.18      0.0000    -90.00 LINEAR  1.6036E-12    -75.95  6.1670E-01    104.05
   90.00    208.00   -999.99    -7.26    -7.26      0.0000    -90.00 LINEAR  2.0868E-12    -72.65  7.6905E-01    107.35
   90.00    209.00   -999.99    -5.80    -5.80      0.0000    -90.00 LINEAR  2.5759E-12    -69.30  9.1057E-01    110.70
   90.00    210.00   -999.99    -4.67    -4.67      0.0000    -90.00 LINEAR  3.0540E-12    -65.87  1.0365E+00    114.13
   90.00    211.00   -999.99    -3.82    -3.82      0.0000    -90.00 LINEAR  3.5045E-12    -62.33  1.1429E+00    117.67
   90.00    212.00   -999.99    -3.21    -3.21      0.0000    -90.00 LINEAR  3.9116E-12    -58.67  1.2266E+00    121.33
   90.00    213.00   -999.99    -2.80    -2.80      0.0000    -90.00 LINEAR  4.2610E-12    -54.87  1.2857E+00    125.13
   90.00    214.00   -999.99    -2.58    -2.58      0.0000    -90.00 LINEAR  4.5401E-12    -50.93  1.3189E+00    129.07
   90.00    215.00   -999.99    -2.53    -2.53      0.0000    -90.00 LINEAR  4.7393E-12    -46.83  1.3263E+00    133.17
   90.00    216.00   -999.99    -2.65    -2.65      0.0000    -90.00 LINEAR  4.8517E-12    -42.57  1.3085E+00    137.43
   90.00    217.00   -999.99    -2.92    -2.92      0.0000    -90.00 LINEAR  4.8736E-12    -38.13  1.2673E+00    141.87
   90.00    218.00   -999.99    -3.36    -3.36      0.0000    -90.00 LINEAR  4.8045E-12    -33.50  1.2050E+00    146.50
   90.00    219.00   -999.99    -3.96    -3.96      0.0000    -90.00 LINEAR  4.6472E-12    -28.67  1.1245E+00    151.33
   90.00    220.00   -999.99    -4.73    -4.73      0.0000    -90.00 LINEAR  4.4075E-12    -23.62  1.0292E+00    156.38
   90.00    221.00   -999.99    -5.68    -5.68      0.0000    -90.00 LINEAR  4.0940E-12    -18.32  9.2283E-01    161.68
   90.00    222.00   -999.99    -6.82    -6.82      0.0000    -90.00 LINEAR  3.7174E-12    -12.77  8.0898E-01    167.23
   90.00    223.00   -999.99    -8.19    -8.19      0.0000    -90.00 LINEAR  3.2901E-12     -6.94  6.9134E-01    173.06
   90.00    224.00   -999.99    -9.81    -9.81      0.0000    -90.00 LINEAR  2.8255E-12     -0.80  5.7332E-01    179.20
   90.00    225.00   -999.99   -11.76   -11.76      0.0000    -90.00 LINEAR  2.3374E-12      5.66  4.5800E-01   -174.34
   90.00    226.00   -999.99   -14.15   -14.15      0.0000    -90.00 LINEAR  1.8389E-12     12.46  3.4797E-01   -167.54
   90.00    227.00   -999.99   -17.19   -17.19      0.0000    -90.00 LINEAR  1.3422E-12     19.59  2.4525E-01   -160.41
   90.00    228.00   -999.99   -21.39   -21.39      0.0000    -90.00 LINEAR  8.5730E-13     26.97  1.5125E-01   -153.03
   90.00    229.00   -999.99   -28.49   -28.49      0.0000    -90.00 LINEAR  3.9199E-13     33.98  6.6769E-02   -146.02
   90.00    230.00   -999.99   -46.40   -46.40      0.0000    -90.00 LINEAR  5.1667E-14   -118.72  8.4950E-03     61.28
   90.00    231.00   -999.99   -27.62   -27.62      0.0000    -90.00 LINEAR  4.6510E-13   -124.38  7.3800E-02     55.62
   90.00    232.00   -999.99   -22.64   -22.64      0.0000    -90.00 LINEAR  8.5561E-13   -115.77  1.3099E-01     64.23
   90.00    233.00   -999.99   -19.83   -19.83      0.0000    -90.00 LINEAR  1.2249E-12   -106.32  1.8087E-01     73.68
   90.00    234.00   -999.99   -17.95   -17.95      0.0000    -90.00 LINEAR  1.5778E-12    -96.52  2.2462E-01     83.48
   90.00    235.00   -999.99   -16.57   -16.57      0.0000    -90.00 LINEAR  1.9189E-12    -86.59  2.6328E-01     93.41
   90.00    236.00   -999.99   -15.51   -15.51      0.0000    -90.00 LINEAR  2.2518E-12    -76.70  2.9762E-01    103.30
   90.00    237.00   -999.99   -14.66   -14.66      0.0000    -90.00 LINEAR  2.5775E-12    -66.97  3.2799E-01    113.03
   90.00    238.00   -999.99   -13.99   -13.99      0.0000    -90.00 LINEAR  2.8939E-12    -57.52  3.5433E-01    122.48
   90.00    239.00   -999.99   -13.47   -13.47      0.0000    -90.00 LINEAR  3.1954E-12    -48.43  3.7621E-01    131.57
   90.00    240.00   -999.99   -13.09   -13.09      0.0000    -90.00 LINEAR  3.4735E-12    -39.77  3.9296E-01    140.23
   90.00    241.00   -999.99   -12.86   -12.86      0.0000    -90.00 LINEAR  3.7172E-12    -31.56  4.0374E-01    148.44
   90.00    242.00   -999.99   -12.77   -12.77      0.0000    -90.00 LINEAR  3.9138E-12    -23.83  4.0777E-01    156.17
   90.00    243.00   -999.99   -12.85   -12.85      0.0000    -90.00 LINEAR  4.0501E-12    -16.60  4.0437E-01    163.40
   90.00    244.00   -999.99   -13.09   -13.09      0.0000    -90.00 LINEAR  4.1130E-12     -9.90  3.9308E-01    170.10
   90.00    245.00   -999.99   -13.53   -13.53      0.0000    -90.00 LINEAR  4.0905E-12     -3.80  3.7376E-01    176.20
   90.00    246.00   -999.99   -14.19   -14.19      0.0000    -90.00 LINEAR  3.9729E-12      1.59  3.4660E-01   -178.41
   90.00    247.00   -999.99   -15.09   -15.09      0.0000    -90.00 LINEAR  3.7538E-12      6.07  3.1222E-01   -173.93
   90.00    248.00   -999.99   -16.30   -16.30      0.0000    -90.00 LINEAR  3.4323E-12      9.25  2.7173E-01   -170.75
   90.00    249.00   -999.99   -17.86   -17.86      0.0000    -90.00 LINEAR  3.0173E-12     10.37  2.2695E-01   -169.63
   90.00    250.00   -999.99   -19.83   -19.83      0.0000    -90.00 LINEAR  2.5373E-12      7.91  1.8095E-01   -172.09
   90.00    251.00   -999.99   -22.08   -22.08      0.0000    -90.00 LINEAR  2.0691E-12     -1.19  1.3960E-01    178.81
   90.00    252.00   -999.99   -23.80   -23.80      0.0000    -90.00 LINEAR  1.7993E-12    -20.67  1.1456E-01    159.33
[...]
  196.00      0.00   -999.99   -22.77   -22.77      0.0000     90.00 LINEAR  0.0000E+00      0.00  1.2899E-01    -56.57
  197.00      0.00   -999.99   -26.32   -26.32      0.0000     90.00 LINEAR  0.0000E+00      0.00  8.5761E-02    -34.97
  198.00      0.00   -999.99   -27.55   -27.55      0.0000     90.00 LINEAR  0.0000E+00      0.00  7.4362E-02     -7.02
  199.00      0.00   -999.99   -27.19   -27.19      0.0000     90.00 LINEAR  0.0000E+00      0.00  7.7558E-02     10.16
  200.00      0.00   -999.99   -27.31   -27.31      0.0000     90.00 LINEAR  0.0000E+00      0.00  7.6460E-02     16.56
  201.00      0.00   -999.99   -28.86   -28.86      0.0000     90.00 LINEAR  0.0000E+00      0.00  6.4009E-02     17.33
  202.00      0.00   -999.99   -33.17   -33.17      0.0000     90.00 LINEAR  0.0000E+00      0.00  3.8947E-02     15.20
  203.00      0.00   -999.99   -58.62   -58.62      0.0000     90.00 LINEAR  0.0000E+00      0.00  2.0812E-03     11.41
  204.00      0.00   -999.99   -31.93   -31.93      0.0000    -90.00 LINEAR  0.0000E+00      0.00  4.4935E-02   -173.46
  205.00      0.00   -999.99   -24.98   -24.98      0.0000    -90.00 LINEAR  0.0000E+00      0.00  1.0007E-01   -179.11
  206.00      0.00   -999.99   -20.84   -20.84      0.0000    -90.00 LINEAR  0.0000E+00      0.00  1.6116E-01    174.60
  207.00      0.00   -999.99   -17.90   -17.90      0.0000    -90.00 LINEAR  0.0000E+00      0.00  2.2611E-01    167.75
  208.00      0.00   -999.99   -15.64   -15.64      0.0000    -90.00 LINEAR  0.0000E+00      0.00  2.9303E-01    160.39
  209.00      0.00   -999.99   -13.85   -13.85      0.0000    -90.00 LINEAR  0.0000E+00      0.00  3.6038E-01    152.51
  210.00      0.00   -999.99   -12.37   -12.37      0.0000    -90.00 LINEAR  0.0000E+00      0.00  4.2716E-01    144.12
  211.00      0.00   -999.99   -11.13   -11.13      0.0000    -90.00 LINEAR  0.0000E+00      0.00  4.9297E-01    135.23
  212.00      0.00   -999.99   -10.05   -10.05      0.0000    -90.00 LINEAR  0.0000E+00      0.00  5.5811E-01    125.85
  213.00      0.00   -999.99    -9.08    -9.08      0.0000    -90.00 LINEAR  0.0000E+00      0.00  6.2355E-01    116.03
  214.00      0.00   -999.99    -8.19    -8.19      0.0000    -90.00 LINEAR  0.0000E+00      0.00  6.9089E-01    105.85
  215.00      0.00   -999.99    -7.34    -7.34      0.0000    -90.00 LINEAR  0.0000E+00      0.00  7.6207E-01     95.42
  216.00      0.00   -999.99    -6.51    -6.51      0.0000     90.00 LINEAR  0.0000E+00      0.00  8.3906E-01     84.89
  217.00      0.00   -999.99    -5.67    -5.67      0.0000     90.00 LINEAR  0.0000E+00      0.00  9.2355E-01     74.44
  218.00      0.00   -999.99    -4.84    -4.84      0.0000     90.00 LINEAR  0.0000E+00      0.00  1.0165E+00     64.22
  219.00      0.00   -999.99    -4.01    -4.01      0.0000     90.00 LINEAR  0.0000E+00      0.00  1.1181E+00     54.35
  220.00      0.00   -999.99    -3.20    -3.20      0.0000     90.00 LINEAR  0.0000E+00      0.00  1.2273E+00     44.94
  221.00      0.00   -999.99    -2.42    -2.42      0.0000     90.00 LINEAR  0.0000E+00      0.00  1.3425E+00     36.03
  222.00      0.00   -999.99    -1.69    -1.69      0.0000     90.00 LINEAR  0.0000E+00      0.00  1.4610E+00     27.63
  223.00      0.00   -999.99    -1.01    -1.01      0.0000     90.00 LINEAR  0.0000E+00      0.00  1.5796E+00     19.74
  224.00      0.00   -999.99    -0.40    -0.40      0.0000     90.00 LINEAR  0.0000E+00      0.00  1.6950E+00     12.33
  225.00      0.00   -999.99     0.14     0.14      0.0000     90.00 LINEAR  0.0000E+00      0.00  1.8033E+00      5.36
  226.00      0.00   -999.99     0.60     0.60      0.0000     90.00 LINEAR  0.0000E+00      0.00  1.9008E+00     -1.20
  227.00      0.00   -999.99     0.97     0.97      0.0000     90.00 LINEAR  0.0000E+00      0.00  1.9840E+00     -7.40
  228.00      0.00   -999.99     1.25     1.25      0.0000     90.00 LINEAR  0.0000E+00      0.00  2.0495E+00    -13.26
  229.00      0.00   -999.99     1.44     1.44      0.0000     90.00 LINEAR  0.0000E+00      0.00  2.0946E+00    -18.82
  230.00      0.00   -999.99     1.53     1.53      0.0000     90.00 LINEAR  0.0000E+00      0.00  2.1169E+00    -24.11
  231.00      0.00   -999.99     1.52     1.52      0.0000     90.00 LINEAR  0.0000E+00      0.00  2.1147E+00    -29.15
  232.00      0.00   -999.99     1.41     1.41      0.0000     90.00 LINEAR  0.0000E+00      0.00  2.0871E+00    -33.96
  233.00      0.00   -999.99     1.18     1.18      0.0000     90.00 LINEAR  0.0000E+00      0.00  2.0337E+00    -38.56
  234.00      0.00   -999.99     0.84     0.84      0.0000     90.00 LINEAR  0.0000E+00      0.00  1.9551E+00    -42.97
  235.00      0.00   -999.99     0.37     0.37      0.0000     90.00 LINEAR  0.0000E+00      0.00  1.8526E+00    -47.20
  236.00      0.00   -999.99    -0.23    -0.23      0.0000     90.00 LINEAR  0.0000E+00      0.00  1.7282E+00    -51.25
  237.00      0.00   -999.99    -0.98    -0.98      0.0000     90.00 LINEAR  0.0000E+00      0.00  1.5846E+00    -55.16
  238.00      0.00   -999.99    -1.90    -1.90      0.0000     90.00 LINEAR  0.0000E+00      0.00  1.4252E+00    -58.91
  239.00      0.00   -999.99    -3.02    -3.02      0.0000     90.00 LINEAR  0.0000E+00      0.00  1.2539E+00    -62.53
  240.00      0.00   -999.99    -4.35    -4.35      0.0000     90.00 LINEAR  0.0000E+00      0.00  1.0751E+00    -66.02
  241.00      0.00   -999.99    -5.96    -5.96      0.0000     90.00 LINEAR  0.0000E+00      0.00  8.9352E-01    -69.40
  242.00      0.00   -999.99    -7.91    -7.91      0.0000     90.00 LINEAR  0.0000E+00      0.00  7.1407E-01    -72.69
  243.00      0.00   -999.99   -10.31   -10.31      0.0000     90.00 LINEAR  0.0000E+00      0.00  5.4173E-01    -75.91
  244.00      0.00   -999.99   -13.35   -13.35      0.0000     90.00 LINEAR  0.0000E+00      0.00  3.8141E-01    -79.13
  245.00      0.00   -999.99   -17.46   -17.46      0.0000     90.00 LINEAR  0.0000E+00      0.00  2.3779E-01    -82.51
  246.00      0.00   -999.99   -23.75   -23.75      0.0000     90.00 LINEAR  0.0000E+00      0.00  1.1525E-01    -86.78
  247.00      0.00   -999.99   -39.72   -39.72      0.0000    -90.00 LINEAR  0.0000E+00      0.00  1.8320E-02   -105.34
  248.00      0.00   -999.99   -30.56   -30.56      0.0000    -90.00 LINEAR  0.0000E+00      0.00  5.2635E-02     97.33
  249.00      0.00   -999.99   -25.76   -25.76      0.0000    -90.00 LINEAR  0.0000E+00      0.00  9.1464E-02     91.96
  250.00      0.00   -999.99   -25.16   -25.16      0.0000     90.00 LINEAR  0.0000E+00      0.00  9.7976E-02     88.90
  251.00      0.00   -999.99   -27.94   -27.94      0.0000     90.00 LINEAR  0.0000E+00      0.00  7.1148E-02     86.41
  252.00      0.00   -999.99   -44.23   -44.23      0.0000     90.00 LINEAR  0.0000E+00      0.00  1.0910E-02     84.20
  253.00      0.00   -999.99   -26.71   -26.71      0.0000    -90.00 LINEAR  0.0000E+00      0.00  8.1912E-02    -97.82
  254.00      0.00   -999.99   -18.72   -18.72      0.0000    -90.00 LINEAR  0.0000E+00      0.00  2.0561E-01    -99.68
  255.00      0.00   -999.99   -13.91   -13.91      0.0000    -90.00 LINEAR  0.0000E+00      0.00  3.5765E-01   -101.40
  256.00      0.00   -999.99   -10.42   -10.42      0.0000    -90.00 LINEAR  0.0000E+00      0.00  5.3470E-01   -102.99
  257.00      0.00   -999.99    -7.68    -7.68      0.0000    -90.00 LINEAR  0.0000E+00      0.00  7.3275E-01   -104.47
  258.00      0.00   -999.99    -5.45    -5.45      0.0000    -90.00 LINEAR  0.0000E+00      0.00  9.4719E-01   -105.83
  259.00      0.00   -999.99    -3.60    -3.60      0.0000    -90.00 LINEAR  0.0000E+00      0.00  1.1729E+00   -107.07
  260.00      0.00   -999.99    -2.03    -2.03      0.0000    -90.00 LINEAR  0.0000E+00      0.00  1.4045E+00   -108.20
  261.00      0.00   -999.99    -0.70    -0.70      0.0000    -90.00 LINEAR  0.0000E+00      0.00  1.6364E+00   -109.23
  262.00      0.00   -999.99     0.42     0.42      0.0000    -90.00 LINEAR  0.0000E+00      0.00  1.8628E+00   -110.14
  263.00      0.00   -999.99     1.37     1.37      0.0000    -90.00 LINEAR  0.0000E+00      0.00  2.0781E+00   -110.94
  264.00      0.00   -999.99     2.17     2.17      0.0000    -90.00 LINEAR  0.0000E+00      0.00  2.2771E+00   -111.64
  265.00      0.00   -999.99     2.82     2.82      0.0000    -90.00 LINEAR  0.0000E+00      0.00  2.4548E+00   -112.22
  266.00      0.00   -999.99     3.34     3.34      0.0000    -90.00 LINEAR  0.0000E+00      0.00  2.6066E+00   -112.71
  267.00      0.00   -999.99     3.74     3.74      0.0000    -90.00 LINEAR  0.0000E+00      0.00  2.7289E+00   -113.08
  268.00      0.00   -999.99     4.02     4.02      0.0000    -90.00 LINEAR  0.0000E+00      0.00  2.8185E+00   -113.35
  269.00      0.00   -999.99     4.19     4.19      0.0000    -90.00 LINEAR  0.0000E+00      0.00  2.8732E+00   -113.51
  270.00      0.00   -999.99     4.24     4.24      0.0000    -90.00 LINEAR  0.0000E+00      0.00  2.8915E+00   -113.56
  271.00      0.00   -999.99     4.19     4.19      0.0000    -90.00 LINEAR  0.0000E+00      0.00  2.8732E+00   -113.51
  272.00      0.00   -999.99     4.02     4.02      0.0000    -90.00 LINEAR  0.0000E+00      0.00  2.8185E+00   -113.35
  273.00      0.00   -999.99     3.74     3.74      0.0000    -90.00 LINEAR  0.0000E+00      0.00  2.7289E+00   -113.08
  274.00      0.00   -999.99     3.34     3.34      0.0000    -90.00 LINEAR  0.0000E+00      0.00  2.6066E+00   -112.71
  275.00      0.00   -999.99     2.82     2.82      0.0000    -90.00 LINEAR  0.0000E+00      0.00  2.4548E+00   -112.22
  276.00      0.00   -999.99     2.17     2.17      0.0000    -90.00 LINEAR  0.0000E+00      0.00  2.2771E+00   -111.64
  277.00      0.00   -999.99     1.37     1.37      0.0000    -90.00 LINEAR  0.0000E+00      0.00  2.0781E+00   -110.94
  278.00      0.00   -999.99     0.42     0.42      0.0000    -90.00 LINEAR  0.0000E+00      0.00  1.8628E+00   -110.14
  279.00      0.00   -999.99    -0.70    -0.70      0.0000    -90.00 LINEAR  0.0000E+00      0.00  1.6364E+00   -109.23
  280.00      0.00   -999.99    -2.03    -2.03      0.0000    -90.00 LINEAR  0.0000E+00      0.00  1.4045E+00   -108.20
  281.00      0.00   -999.99    -3.60    -3.60      0.0000    -90.00 LINEAR  0.0000E+00      0.00  1.1729E+00   -107.07
  282.00      0.00   -999.99    -5.45    -5.45      0.0000    -90.00 LINEAR  0.0000E+00      0.00  9.4719E-01   -105.83
  283.00      0.00   -999.99    -7.68    -7.68      0.0000    -90.00 LINEAR  0.0000E+00      0.00  7.3275E-01   -104.47
  284.00      0.00   -999.99   -10.42   -10.42      0.0000    -90.00 LINEAR  0.0000E+00      0.00  5.3470E-01   -102.99
  285.00      0.00   -999.99   -13.91   -13.91      0.0000    -90.00 LINEAR  0.0000E+00      0.00  3.5765E-01   -101.40
  286.00      0.00   -999.99   -18.72   -18.72      0.0000    -90.00 LINEAR  0.0000E+00      0.00  2.0561E-01    -99.68
  287.00      0.00   -999.99   -26.71   -26.71      0.0000    -90.00 LINEAR  0.0000E+00      0.00  8.1912E-02    -97.82
  288.00      0.00   -999.99   -44.23   -44.23      0.0000     90.00 LINEAR  0.0000E+00      0.00  1.0910E-02     84.20
  289.00      0.00   -999.99   -27.94   -27.94      0.0000     90.00 LINEAR  0.0000E+00      0.00  7.1148E-02     86.41
  290.00      0.00   -999.99   -25.16   -25.16      0.0000     90.00 LINEAR  0.0000E+00      0.00  9.7976E-02     88.90
  291.00      0.00   -999.99   -25.76   -25.76      0.0000    -90.00 LINEAR  0.0000E+00      0.00  9.1464E-02     91.96
  292.00      0.00   -999.99   -30.56   -30.56      0.0000    -90.00 LINEAR  0.0000E+00      0.00  5.2635E-02     97.33
  293.00      0.00   -999.99   -39.72   -39.72      0.0000    -90.00 LINEAR  0.0000E+00      0.00  1.8320E-02   -105.34
  294.00      0.00   -999.99   -23.75   -23.75      0.0000     90.00 LINEAR  0.0000E+00      0.00  1.1525E-01    -86.78
  295.00      0.00   -999.99   -17.46   -17.46      0.0000     90.00 LINEAR  0.0000E+00      0.00  2.3779E-01    -82.51
  296.00      0.00   -999.99   -13.35   -13.35      0.0000     90.00 LINEAR  0.0000E+00      0.00  3.8141E-01    -79.13
  297.00      0.00   -999.99   -10.31   -10.31      0.0000     90.00 LINEAR  0.0000E+00      0.00  5.4173E-01    -75.91
  298.00      0.00   -999.99    -7.91    -7.91      0.0000     90.00 LINEAR  0.0000E+00      0.00  7.1407E-01    -72.69
  299.00      0.00   -999.99    -5.96    -5.96      0.0000     90.00 LINEAR  0.0000E+00      0.00  8.9352E-01    -69.40
  300.00      0.00   -999.99    -4.35    -4.35      0.0000     90.00 LINEAR  0.0000E+00      0.00  1.0751E+00    -66.02
  301.00      0.00   -999.99    -3.02    -3.02      0.0000     90.00 LINEAR  0.0000E+00      0.00  1.2539E+00    -62.53
  302.00      0.00   -999.99    -1.90    -1.90      0.0000     90.00 LINEAR  0.0000E+00      0.00  1.4252E+00    -58.91
  303.00      0.00   -999.99    -0.98    -0.98      0.0000     90.00 LINEAR  0.0000E+00      0.00  1.5846E+00    -55.16
  304.00      0.00   -999.99    -0.23    -0.23      0.0000     90.00 LINEAR  0.0000E+00      0.00  1.7282E+00    -51.25
  305.00      0.00   -999.99     0.37     0.37      0.0000     90.00 LINEAR  0.0000E+00      0.00  1.8526E+00    -47.20
  306.00      0.00   -999.99     0.84     0.84      0.0000     90.00 LINEAR  0.0000E+00      0.00  1.9551E+00    -42.97
  307.00      0.00   -999.99     1.18     1.18      0.0000     90.00 LINEAR  0.0000E+00      0.00  2.0337E+00    -38.56
  308.00      0.00   -999.99     1.41     1.41      0.0000     90.00 LINEAR  0.0000E+00      0.00  2.0871E+00    -33.96
  309.00      0.00   -999.99     1.52     1.52      0.0000     90.00 LINEAR  0.0000E+00      0.00  2.1147E+00    -29.15
  310.00      0.00   -999.99     1.53     1.53      0.0000     90.00 LINEAR  0.0000E+00      0.00  2.1169E+00    -24.11
  311.00      0.00   -999.99     1.44     1.44      0.0000     90.00 LINEAR  0.0000E+00      0.00  2.0946E+00    -18.82
  312.00      0.00   -999.99     1.25     1.25      0.0000     90.00 LINEAR  0.0000E+00      0.00  2.0495E+00    -13.26
  313.00      0.00   -999.99     0.97     0.97      0.0000     90.00 LINEAR  0.0000E+00      0.00  1.9840E+00     -7.40
  314.00      0.00   -999.99     0.60     0.60      0.0000     90.00 LINEAR  0.0000E+00      0.00  1.9008E+00     -1.20
  315.00      0.00   -999.99     0.14     0.14      0.0000     90.00 LINEAR  0.0000E+00      0.00  1.8033E+00      5.36
  316.00      0.00   -999.99    -0.40    -0.40      0.0000     90.00 LINEAR  0.0000E+00      0.00  1.6950E+00     12.33
  317.00      0.00   -999.99    -1.01    -1.01      0.0000     90.00 LINEAR  0.0000E+00      0.00  1.5796E+00     19.74
  318.00      0.00   -999.99    -1.69    -1.69      0.0000     90.00 LINEAR  0.0000E+00      0.00  1.4610E+00     27.63
  319.00      0.00   -999.99    -2.42    -2.42      0.0000     90.00 LINEAR  0.0000E+00      0.00  1.3425E+00     36.03
  320.00      0.00   -999.99    -3.20    -3.20      0.0000     90.00 LINEAR  0.0000E+00      0.00  1.2273E+00     44.94
  321.00      0.00   -999.99    -4.01    -4.01      0.0000     90.00 LINEAR  0.0000E+00      0.00  1.1181E+00     54.35
  322.00      0.00   -999.99    -4.84    -4.84      0.0000     90.00 LINEAR  0.0000E+00      0.00  1.0165E+00     64.22
  323.00      0.00   -999.99    -5.67    -5.67      0.0000     90.00 LINEAR  0.0000E+00      0.00  9.2355E-01     74.44
  324.00      0.00   -999.99    -6.51    -6.51      0.0000     90.00 LINEAR  0.0000E+00      0.00  8.3906E-01     84.89
  325.00      0.00   -999.99    -7.34    -7.34      0.0000    -90.00 LINEAR  0.0000E+00      0.00  7.6207E-01     95.42
  326.00      0.00   -999.99    -8.19    -8.19      0.0000    -90.00 LINEAR  0.0000E+00      0.00  6.9089E-01    105.85
  327.00      0.00   -999.99    -9.08    -9.08      0.0000    -90.00 LINEAR  0.0000E+00      0.00  6.2355E-01    116.03
  328.00      0.00   -999.99   -10.05   -10.05      0.0000    -90.00 LINEAR  0.0000E+00      0.00  5.5811E-01    125.85
  329.00      0.00   -999.99   -11.13   -11.13      0.0000    -90.00 LINEAR  0.0000E+00      0.00  4.9297E-01    135.23
  330.00      0.00   -999.99   -12.37   -12.37      0.0000    -90.00 LINEAR  0.0000E+00      0.00  4.2716E-01    144.12
  331.00      0.00   -999.99   -13.85   -13.85      0.0000    -90.00 LINEAR  0.0000E+00      0.00  3.6038E-01    152.51
  332.00      0.00   -999.99   -15.64   -15.64      0.0000    -90.00 LINEAR  0.0000E+00      0.00  2.9303E-01    160.39
  333.00      0.00   -999.99   -17.90   -17.90      0.0000    -90.00 LINEAR  0.0000E+00      0.00  2.2611E-01    167.75
  334.00      0.00   -999.99   -20.84   -20.84      0.0000    -90.00 LINEAR  0.0000E+00      0.00  1.6116E-01    174.60
  335.00      0.00   -999.99   -24.98   -24.98      0.0000    -90.00 LINEAR  0.0000E+00      0.00  1.0007E-01   -179.11
  336.00      0.00   -999.99   -31.93   -31.93      0.0000    -90.00 LINEAR  0.0000E+00      0.00  4.4935E-02   -173.46
  337.00      0.00   -999.99   -58.62   -58.62      0.0000     90.00 LINEAR  0.0000E+00      0.00  2.0812E-03     11.41
  338.00      0.00   -999.99   -33.17   -33.17      0.0000     90.00 LINEAR  0.0000E+00      0.00  3.8947E-02     15.20
  339.00      0.00   -999.99   -28.86   -28.86      0.0000     90.00 LINEAR  0.0000E+00      0.00  6.4009E-02     17.33
  340.00      0.00   -999.99   -27.31   -27.31      0.0000     90.00 LINEAR  0.0000E+00      0.00  7.6460E-02     16.56
  341.00      0.00   -999.99   -27.19   -27.19      0.0000     90.00 LINEAR  0.0000E+00      0.00  7.7558E-02     10.16
  342.00      0.00   -999.99   -27.55   -27.55      0.0000     90.00 LINEAR  0.0000E+00      0.00  7.4362E-02     -7.02
  343.00      0.00   -999.99   -26.32   -26.32      0.0000     90.00 LINEAR  0.0000E+00      0.00  8.5761E-02    -34.97
  344.00      0.00   -999.99   -22.77   -22.77      0.0000     90.00 LINEAR  0.0000E+00      0.00  1.2899E-01    -56.57
  345.00      0.00   -999.99   -18.90   -18.90      0.0000     90.00 LINEAR  0.0000E+00      0.00  2.0144E-01    -66.06
  346.00      0.00   -999.99   -15.54   -15.54      0.0000     90.00 LINEAR  0.0000E+00      0.00  2.9663E-01    -68.70
  347.00      0.00   -999.99   -12.71   -12.71      0.0000     90.00 LINEAR  0.0000E+00      0.00  4.1063E-01    -67.98
  348.00      0.00   -999.99   -10.32   -10.32      0.0000     90.00 LINEAR  0.0000E+00      0.00  5.4057E-01    -65.52
  349.00      0.00   -999.99    -8.28    -8.28      0.0000     90.00 LINEAR  0.0000E+00      0.00  6.8372E-01    -62.06
  350.00      0.00   -999.99    -6.52    -6.52      0.0000     90.00 LINEAR  0.0000E+00      0.00  8.3720E-01    -57.99
  351.00      0.00   -999.99    -5.00    -5.00      0.0000     90.00 LINEAR  0.0000E+00      0.00  9.9791E-01    -53.52
  352.00      0.00   -999.99    -3.67    -3.67      0.0000     90.00 LINEAR  0.0000E+00      0.00  1.1625E+00    -48.80
  353.00      0.00   -999.99    -2.52    -2.52      0.0000     90.00 LINEAR  0.0000E+00      0.00  1.3276E+00    -43.90
  354.00      0.00   -999.99    -1.52    -1.52      0.0000     90.00 LINEAR  0.0000E+00      0.00  1.4895E+00    -38.87
  355.00      0.00   -999.99    -0.66    -0.66      0.0000     90.00 LINEAR  0.0000E+00      0.00  1.6447E+00    -33.76
  356.00      0.00   -999.99     0.07     0.07      0.0000     90.00 LINEAR  0.0000E+00      0.00  1.7896E+00    -28.59
  357.00      0.00   -999.99     0.69     0.69      0.0000     90.00 LINEAR  0.0000E+00      0.00  1.9209E+00    -23.38
  358.00      0.00   -999.99     1.19     1.19      0.0000     90.00 LINEAR  0.0000E+00      0.00  2.0355E+00    -18.15
  359.00      0.00   -999.99     1.59     1.59      0.0000     90.00 LINEAR  0.0000E+00      0.00  2.1305E+00    -12.91
  360.00      0.00   -999.99     1.88     1.88      0.0000     90.00 LINEAR  0.0000E+00      0.00  2.2035E+00     -7.67



*****  DATA CARD N0.  37 EN   0     0     0     0  0.00000E+00  0.00000E+00  0.00000E+00  0.00000E+00  0.00000E+00  0.00000E+00

  TOTAL RUN TIME: 1070 msec