1



                                ***********************************************
                                *                                             *
                                *  NUMERICAL ELECTROMAGNETICS CODE (NEC-4.1)  *
                                *                                             *
                                ***********************************************




                      **********************************************************

                         EXAMPLE 1.  CENTER FED LINEAR ANTENNA                                         

                      **********************************************************





                                 - - - STRUCTURE SPECIFICATION - - -

                                     COORDINATES MUST BE INPUT IN
                                     METERS OR BE SCALED TO METERS
                                     BEFORE STRUCTURE INPUT IS ENDED


  WIRE                                                                               NO. OF    FIRST  LAST     TAG
  NO.        X1         Y1         Z1          X2         Y2         Z2      RADIUS   SEG.     SEG.   SEG.     NO.
     1     .00000     .00000    -.25000      .00000     .00000     .25000     .00100      7        1     7       0

   TOTAL SEGMENTS USED=    7     NO. SEG. IN A SYMMETRIC CELL=    7     SYMMETRY FLAG=  0


         - MULTIPLE WIRE JUNCTIONS -
 JUNCTION    SEGMENTS  (- FOR END 1, + FOR END 2)
  NONE




                                 - - - - SEGMENTATION DATA - - - -

                                        COORDINATES IN METERS

                         I+ AND I- INDICATE THE SEGMENTS BEFORE AND AFTER I


  SEG.   COORDINATES OF SEG. CENTER     SEG.     ORIENTATION ANGLES    WIRE    CONNECTION DATA   TAG
  NO.       X         Y         Z       LENGTH     ALPHA     BETA      RADIUS    I-   I    I+    NO.
     1    .00000    .00000   -.21429    .07143   90.00000    .00000    .00100     0    1    2      0
     2    .00000    .00000   -.14286    .07143   90.00000    .00000    .00100     1    2    3      0
     3    .00000    .00000   -.07143    .07143   90.00000    .00000    .00100     2    3    4      0
     4    .00000    .00000    .00000    .07143   90.00000    .00000    .00100     3    4    5      0
     5    .00000    .00000    .07143    .07143   90.00000    .00000    .00100     4    5    6      0
     6    .00000    .00000    .14286    .07143   90.00000    .00000    .00100     5    6    7      0
     7    .00000    .00000    .21429    .07143   90.00000    .00000    .00100     6    7    0      0




 ***** INPUT LINE  1  EX   0    0    4    0  1.00000E+00  0.00000E+00  0.00000E+00  0.00000E+00  0.00000E+00  0.00000E+00
 ***** INPUT LINE  2  XQ   0    0    0    0  0.00000E+00  0.00000E+00  0.00000E+00  0.00000E+00  0.00000E+00  0.00000E+00




                                 - - - - - - FREQUENCY - - - - - -

                                    FREQUENCY= 2.9980E+02 MHZ
                                    WAVELENGTH= 1.0000E+00 METERS



                                  - - - ANTENNA ENVIRONMENT - - -

                                            FREE SPACE



                               - - - STRUCTURE IMPEDANCE LOADING - - -

                                   THIS STRUCTURE IS NOT LOADED



                                - - - MATRIX TIMING - - -

                        FILL=     .030 SEC.,  FACTOR=     .000 SEC.



                                          - - - ANTENNA INPUT PARAMETERS - - -

   TAG   SEG.    VOLTAGE (VOLTS)         CURRENT (AMPS)         IMPEDANCE (OHMS)        ADMITTANCE (MHOS)      POWER
   NO.   NO.    REAL        IMAG.       REAL        IMAG.       REAL        IMAG.       REAL        IMAG.     (WATTS)
     0     4 1.00000E+00 0.00000E+00 9.20578E-03-5.15456E-03 8.26996E+01 4.63057E+01 9.20578E-03-5.15456E-03 4.60289E-03



                             - - - CURRENTS AND LOCATION - - -

                     LENGTHS NORMALIZED BY WAVELENGTH (OR 2.*PI/CABS(K))

  SEG.  TAG    COORD. OF SEG. CENTER     SEG.            - - - CURRENT (AMPS) - - -
  NO.   NO.     X        Y        Z      LENGTH     REAL        IMAG.       MAG.        PHASE
     1    0    .0000    .0000   -.2143   .07143   2.3592E-03 -1.6880E-03  2.9009E-03  -35.584
     2    0    .0000    .0000   -.1429   .07143   5.9998E-03 -4.0462E-03  7.2366E-03  -33.995
     3    0    .0000    .0000   -.0714   .07143   8.3710E-03 -5.1856E-03  9.8471E-03  -31.777
     4    0    .0000    .0000    .0000   .07143   9.2058E-03 -5.1546E-03  1.0551E-02  -29.246
     5    0    .0000    .0000    .0714   .07143   8.3710E-03 -5.1856E-03  9.8471E-03  -31.777
     6    0    .0000    .0000    .1429   .07143   5.9998E-03 -4.0462E-03  7.2366E-03  -33.995
     7    0    .0000    .0000    .2143   .07143   2.3592E-03 -1.6880E-03  2.9009E-03  -35.584



                                        - - - POWER BUDGET - - -

                                           INPUT POWER   = 4.6029E-03 WATTS
                                           RADIATED POWER= 4.6029E-03 WATTS
                                           WIRE LOSS     = 0.0000E+00 WATTS
                                           EFFICIENCY    = 100.00 PERCENT




 ***** INPUT LINE  3  LD   0    0    4    4  1.00000E+01  3.00000E-09  5.30000E-11  0.00000E+00  0.00000E+00  0.00000E+00
 ***** INPUT LINE  4  PQ   0    0    0    0  0.00000E+00  0.00000E+00  0.00000E+00  0.00000E+00  0.00000E+00  0.00000E+00
 ***** INPUT LINE  5  NE   0    1    1   15  0.00000E+00  0.00000E+00  0.00000E+00  0.00000E+00  0.00000E+00  1.78600E-02




                                 - - - - - - FREQUENCY - - - - - -

                                    FREQUENCY= 2.9980E+02 MHZ
                                    WAVELENGTH= 1.0000E+00 METERS



                                  - - - ANTENNA ENVIRONMENT - - -

                                            FREE SPACE



                               - - - STRUCTURE IMPEDANCE LOADING - - -


       LOCATION          RESISTANCE   INDUCTANCE  CAPACITANCE       IMPEDANCE (OHMS)     CONDUCTIVITY    TYPE
    ITAG FROM THRU          OHMS        HENRYS       FARADS        REAL      IMAGINARY    MHOS/METER

            4    4      1.0000E+01   3.0000E-09   5.3000E-11                                           SERIES 



                                - - - MATRIX TIMING - - -

                        FILL=     .020 SEC.,  FACTOR=     .000 SEC.



                                          - - - ANTENNA INPUT PARAMETERS - - -

   TAG   SEG.    VOLTAGE (VOLTS)         CURRENT (AMPS)         IMPEDANCE (OHMS)        ADMITTANCE (MHOS)      POWER
   NO.   NO.    REAL        IMAG.       REAL        IMAG.       REAL        IMAG.       REAL        IMAG.     (WATTS)
     0     4 1.00000E+00 0.00000E+00 8.95457E-03-4.05135E-03 9.26996E+01 4.19404E+01 8.95457E-03-4.05135E-03 4.47728E-03



                             - - - CURRENTS AND LOCATION - - -

                     LENGTHS NORMALIZED BY WAVELENGTH (OR 2.*PI/CABS(K))

  SEG.  TAG    COORD. OF SEG. CENTER     SEG.            - - - CURRENT (AMPS) - - -
  NO.   NO.     X        Y        Z      LENGTH     REAL        IMAG.       MAG.        PHASE
     1    0    .0000    .0000   -.2143   .07143   2.3240E-03 -1.3789E-03  2.7023E-03  -30.682
     2    0    .0000    .0000   -.1429   .07143   5.8907E-03 -3.2778E-03  6.7413E-03  -29.093
     3    0    .0000    .0000   -.0714   .07143   8.1823E-03 -4.1466E-03  9.1730E-03  -26.875
     4    0    .0000    .0000    .0000   .07143   8.9546E-03 -4.0514E-03  9.8284E-03  -24.344
     5    0    .0000    .0000    .0714   .07143   8.1823E-03 -4.1466E-03  9.1730E-03  -26.875
     6    0    .0000    .0000    .1429   .07143   5.8907E-03 -3.2778E-03  6.7412E-03  -29.093
     7    0    .0000    .0000    .2143   .07143   2.3240E-03 -1.3789E-03  2.7023E-03  -30.682



                                  - - - CHARGE DENSITIES - - -

                       LENGTHS NORMALIZED TO WAVELENGTH (OR 2.*PI/CABS(K))


  SEG.  TAG    COORD. OF SEG. CENTER     SEG.          CHARGE DENSITY (COULOMBS/METER)
  NO.   NO.     X        Y        Z      LENGTH     REAL        IMAG.       MAG.        PHASE
     1E   0    .0000    .0000   -.2500   .07143   2.1919E-11  3.6035E-11  4.2178E-11   58.689
     1    0    .0000    .0000   -.2143   .07143   1.8291E-11  3.1761E-11  3.6651E-11   60.062
     2    0    .0000    .0000   -.1429   .07143   1.0429E-11  2.2040E-11  2.4383E-11   64.677
     3    0    .0000    .0000   -.0714   .07143   2.1139E-12  1.1638E-11  1.1829E-11   79.706
     4    0    .0000    .0000    .0000   .07143  -1.6381E-18 -8.7431E-18  8.8952E-18 -100.612
     5    0    .0000    .0000    .0714   .07143  -2.1139E-12 -1.1638E-11  1.1829E-11 -100.294
     6    0    .0000    .0000    .1429   .07143  -1.0429E-11 -2.2040E-11  2.4383E-11 -115.323
     7    0    .0000    .0000    .2143   .07143  -1.8291E-11 -3.1761E-11  3.6651E-11 -119.938
     7E   0    .0000    .0000    .2500   .07143  -2.1919E-11 -3.6035E-11  4.2178E-11 -121.311



                                        - - - POWER BUDGET - - -

                                           INPUT POWER   = 4.4773E-03 WATTS
                                           RADIATED POWER= 3.9943E-03 WATTS
                                           WIRE LOSS     = 4.8299E-04 WATTS
                                           EFFICIENCY    =  89.21 PERCENT



                                      - - - NEAR ELECTRIC FIELDS - - -

              -  LOCATION  -                     -  EX  -               -  EY  -               -  EZ  -
        X           Y           Z           MAGNITUDE   PHASE      MAGNITUDE   PHASE      MAGNITUDE   PHASE
      METERS      METERS      METERS         VOLTS/M   DEGREES      VOLTS/M   DEGREES      VOLTS/M   DEGREES
         .0000       .0000       .0000     0.0000E+00      .00    0.0000E+00      .00    1.3042E+01  -175.10
         .0000       .0000       .0179     0.0000E+00      .00    0.0000E+00      .00    1.2536E+01  -175.08
         .0000       .0000       .0357     0.0000E+00      .00    0.0000E+00      .00    6.7270E+00  -175.46
         .0000       .0000       .0536     0.0000E+00      .00    0.0000E+00      .00    8.4348E-01  -179.75
         .0000       .0000       .0714     0.0000E+00      .00    0.0000E+00      .00    3.2851E-04    -6.75
         .0000       .0000       .0893     0.0000E+00      .00    0.0000E+00      .00    3.4487E-01    -8.87
         .0000       .0000       .1072     0.0000E+00      .00    0.0000E+00      .00    2.7983E-01    22.83
         .0000       .0000       .1250     0.0000E+00      .00    0.0000E+00      .00    2.2073E-01    74.43
         .0000       .0000       .1429     0.0000E+00      .00    0.0000E+00      .00    3.2703E-04  -107.03
         .0000       .0000       .1607     0.0000E+00      .00    0.0000E+00      .00    2.1940E-01  -106.43
         .0000       .0000       .1786     0.0000E+00      .00    0.0000E+00      .00    1.9746E+00    57.57
         .0000       .0000       .1965     0.0000E+00      .00    0.0000E+00      .00    3.3108E+00    58.63
         .0000       .0000       .2143     0.0000E+00      .00    0.0000E+00      .00    1.0225E-02  -121.54
         .0000       .0000       .2322     0.0000E+00      .00    0.0000E+00      .00    1.0677E+01  -121.66
         .0000       .0000       .2500     0.0000E+00      .00    0.0000E+00      .00    7.3670E+02  -121.37




 ***** INPUT LINE  6  NE   0    1    1   15  1.00000E-03  0.00000E+00  0.00000E+00  0.00000E+00  0.00000E+00  1.78600E-02



                                      - - - NEAR ELECTRIC FIELDS - - -

              -  LOCATION  -                     -  EX  -               -  EY  -               -  EZ  -
        X           Y           Z           MAGNITUDE   PHASE      MAGNITUDE   PHASE      MAGNITUDE   PHASE
      METERS      METERS      METERS         VOLTS/M   DEGREES      VOLTS/M   DEGREES      VOLTS/M   DEGREES
         .0010       .0000       .0000     1.4265E-04  -116.09    0.0000E+00      .00    1.2068E+01  -175.57
         .0010       .0000       .0179     5.5432E+01   -66.34    0.0000E+00      .00    1.1563E+01  -175.56
         .0010       .0000       .0357     1.0947E+02   -67.51    0.0000E+00      .00    6.3683E+00  -176.30
         .0010       .0000       .0536     1.5608E+02   -88.87    0.0000E+00      .00    1.0985E+00   177.07
         .0010       .0000       .0714     2.1267E+02  -100.31    0.0000E+00      .00    2.6119E-01   166.81
         .0010       .0000       .0893     2.7146E+02  -106.86    0.0000E+00      .00    8.6227E-02     4.25
         .0010       .0000       .1072     3.2922E+02  -111.07    0.0000E+00      .00    1.3827E-01    77.44
         .0010       .0000       .1250     3.8591E+02  -113.51    0.0000E+00      .00    2.5106E-01   124.56
         .0010       .0000       .1429     4.3834E+02  -115.33    0.0000E+00      .00    2.0187E-01  -178.22
         .0010       .0000       .1607     4.8562E+02  -116.77    0.0000E+00      .00    3.4159E-01  -140.60
         .0010       .0000       .1786     5.2835E+02  -117.97    0.0000E+00      .00    1.5253E+00    63.32
         .0010       .0000       .1965     5.9658E+02  -119.06    0.0000E+00      .00    2.5345E+00    62.10
         .0010       .0000       .2143     6.5864E+02  -119.94    0.0000E+00      .00    8.0359E-01  -132.39
         .0010       .0000       .2322     7.1183E+02  -120.67    0.0000E+00      .00    1.1430E+01  -122.41
         .0010       .0000       .2500     6.2616E+02  -121.28    0.0000E+00      .00    2.7831E+02  -121.49




 ***** INPUT LINE  7  NX   0    0    0    0  0.00000E+00  0.00000E+00  0.00000E+00  0.00000E+00  0.00000E+00  0.00000E+00
1



                                ***********************************************
                                *                                             *
                                *  NUMERICAL ELECTROMAGNETICS CODE (NEC-4.1)  *
                                *                                             *
                                ***********************************************




                      **********************************************************

                         EXAMPLE 2.  CENTER FED LINEAR ANTENNA.                                        
                                     CURRENT SLOPE DISCONTINUITY SOURCE.                               
                                     1. THIN PERFECTLY CONDUCTING WIRE                                 
                                     2. THIN ALUMINUM WIRE                                             

                      **********************************************************





                                 - - - STRUCTURE SPECIFICATION - - -

                                     COORDINATES MUST BE INPUT IN
                                     METERS OR BE SCALED TO METERS
                                     BEFORE STRUCTURE INPUT IS ENDED


  WIRE                                                                               NO. OF    FIRST  LAST     TAG
  NO.        X1         Y1         Z1          X2         Y2         Z2      RADIUS   SEG.     SEG.   SEG.     NO.
     1     .00000     .00000    -.25000      .00000     .00000     .25000     .00001      8        1     8       0

   TOTAL SEGMENTS USED=    8     NO. SEG. IN A SYMMETRIC CELL=    8     SYMMETRY FLAG=  0


         - MULTIPLE WIRE JUNCTIONS -
 JUNCTION    SEGMENTS  (- FOR END 1, + FOR END 2)
  NONE




                                 - - - - SEGMENTATION DATA - - - -

                                        COORDINATES IN METERS

                         I+ AND I- INDICATE THE SEGMENTS BEFORE AND AFTER I


  SEG.   COORDINATES OF SEG. CENTER     SEG.     ORIENTATION ANGLES    WIRE    CONNECTION DATA   TAG
  NO.       X         Y         Z       LENGTH     ALPHA     BETA      RADIUS    I-   I    I+    NO.
     1    .00000    .00000   -.21875    .06250   90.00000    .00000    .00001     0    1    2      0
     2    .00000    .00000   -.15625    .06250   90.00000    .00000    .00001     1    2    3      0
     3    .00000    .00000   -.09375    .06250   90.00000    .00000    .00001     2    3    4      0
     4    .00000    .00000   -.03125    .06250   90.00000    .00000    .00001     3    4    5      0
     5    .00000    .00000    .03125    .06250   90.00000    .00000    .00001     4    5    6      0
     6    .00000    .00000    .09375    .06250   90.00000    .00000    .00001     5    6    7      0
     7    .00000    .00000    .15625    .06250   90.00000    .00000    .00001     6    7    8      0
     8    .00000    .00000    .21875    .06250   90.00000    .00000    .00001     7    8    0      0




 ***** INPUT LINE  1  FR   0    3    0    0  2.00000E+02  5.00000E+01  0.00000E+00  0.00000E+00  0.00000E+00  0.00000E+00
 ***** INPUT LINE  2  EX   5    0    5    1  1.00000E+00  0.00000E+00  5.00000E+01  0.00000E+00  0.00000E+00  0.00000E+00
 ***** INPUT LINE  3  XQ   0    0    0    0  0.00000E+00  0.00000E+00  0.00000E+00  0.00000E+00  0.00000E+00  0.00000E+00




                                 - - - - - - FREQUENCY - - - - - -

                                    FREQUENCY= 2.0000E+02 MHZ
                                    WAVELENGTH= 1.4990E+00 METERS



                                  - - - ANTENNA ENVIRONMENT - - -

                                            FREE SPACE



                               - - - STRUCTURE IMPEDANCE LOADING - - -

                                   THIS STRUCTURE IS NOT LOADED



                                - - - MATRIX TIMING - - -

                        FILL=     .030 SEC.,  FACTOR=     .000 SEC.



                                          - - - ANTENNA INPUT PARAMETERS - - -

   TAG   SEG.    VOLTAGE (VOLTS)         CURRENT (AMPS)         IMPEDANCE (OHMS)        ADMITTANCE (MHOS)      POWER
   NO.   NO.    REAL        IMAG.       REAL        IMAG.       REAL        IMAG.       REAL        IMAG.     (WATTS)
     0 *   5 1.00000E+00 0.00000E+00 6.64054E-05 1.57933E-03 2.65762E+01-6.32064E+02 6.64054E-05 1.57933E-03 3.32027E-05



                             - - - CURRENTS AND LOCATION - - -

                     LENGTHS NORMALIZED BY WAVELENGTH (OR 2.*PI/CABS(K))

  SEG.  TAG    COORD. OF SEG. CENTER     SEG.            - - - CURRENT (AMPS) - - -
  NO.   NO.     X        Y        Z      LENGTH     REAL        IMAG.       MAG.        PHASE
     1    0    .0000    .0000   -.1459   .04169   1.5369E-05  2.5220E-04  2.5267E-04   86.513
     2    0    .0000    .0000   -.1042   .04169   3.9856E-05  7.0589E-04  7.0701E-04   86.768
     3    0    .0000    .0000   -.0625   .04169   5.6673E-05  1.1008E-03  1.1023E-03   87.053
     4    0    .0000    .0000   -.0208   .04169   6.5313E-05  1.4319E-03  1.4334E-03   87.388
     5    0    .0000    .0000    .0208   .04169   6.5313E-05  1.4319E-03  1.4334E-03   87.388
     6    0    .0000    .0000    .0625   .04169   5.6673E-05  1.1008E-03  1.1023E-03   87.053
     7    0    .0000    .0000    .1042   .04169   3.9856E-05  7.0589E-04  7.0701E-04   86.768
     8    0    .0000    .0000    .1459   .04169   1.5369E-05  2.5220E-04  2.5267E-04   86.513



                                        - - - POWER BUDGET - - -

                                           INPUT POWER   = 3.3203E-05 WATTS
                                           RADIATED POWER= 3.3203E-05 WATTS
                                           WIRE LOSS     = 0.0000E+00 WATTS
                                           EFFICIENCY    = 100.00 PERCENT




                                 - - - - - - FREQUENCY - - - - - -

                                    FREQUENCY= 2.5000E+02 MHZ
                                    WAVELENGTH= 1.1992E+00 METERS



                                  - - - ANTENNA ENVIRONMENT - - -

                                            FREE SPACE



                               - - - STRUCTURE IMPEDANCE LOADING - - -

                                   THIS STRUCTURE IS NOT LOADED



                                - - - MATRIX TIMING - - -

                        FILL=     .020 SEC.,  FACTOR=     .000 SEC.



                                          - - - ANTENNA INPUT PARAMETERS - - -

   TAG   SEG.    VOLTAGE (VOLTS)         CURRENT (AMPS)         IMPEDANCE (OHMS)        ADMITTANCE (MHOS)      POWER
   NO.   NO.    REAL        IMAG.       REAL        IMAG.       REAL        IMAG.       REAL        IMAG.     (WATTS)
     0 *   5 1.00000E+00 0.00000E+00 6.16988E-04 3.56466E-03 4.71435E+01-2.72372E+02 6.16988E-04 3.56466E-03 3.08494E-04



                             - - - CURRENTS AND LOCATION - - -

                     LENGTHS NORMALIZED BY WAVELENGTH (OR 2.*PI/CABS(K))

  SEG.  TAG    COORD. OF SEG. CENTER     SEG.            - - - CURRENT (AMPS) - - -
  NO.   NO.     X        Y        Z      LENGTH     REAL        IMAG.       MAG.        PHASE
     1    0    .0000    .0000   -.1824   .05212   1.3629E-04  6.4701E-04  6.6120E-04   78.105
     2    0    .0000    .0000   -.1303   .05212   3.6169E-04  1.7863E-03  1.8225E-03   78.553
     3    0    .0000    .0000   -.0782   .05212   5.2216E-04  2.7057E-03  2.7557E-03   79.077
     4    0    .0000    .0000   -.0261   .05212   6.0628E-04  3.3503E-03  3.4047E-03   79.743
     5    0    .0000    .0000    .0261   .05212   6.0628E-04  3.3503E-03  3.4047E-03   79.743
     6    0    .0000    .0000    .0782   .05212   5.2216E-04  2.7057E-03  2.7557E-03   79.077
     7    0    .0000    .0000    .1303   .05212   3.6169E-04  1.7863E-03  1.8225E-03   78.553
     8    0    .0000    .0000    .1824   .05212   1.3629E-04  6.4701E-04  6.6120E-04   78.105



                                        - - - POWER BUDGET - - -

                                           INPUT POWER   = 3.0849E-04 WATTS
                                           RADIATED POWER= 3.0849E-04 WATTS
                                           WIRE LOSS     = 0.0000E+00 WATTS
                                           EFFICIENCY    = 100.00 PERCENT




                                 - - - - - - FREQUENCY - - - - - -

                                    FREQUENCY= 3.0000E+02 MHZ
                                    WAVELENGTH= 9.9933E-01 METERS



                                  - - - ANTENNA ENVIRONMENT - - -

                                            FREE SPACE



                               - - - STRUCTURE IMPEDANCE LOADING - - -

                                   THIS STRUCTURE IS NOT LOADED



                                - - - MATRIX TIMING - - -

                        FILL=     .020 SEC.,  FACTOR=     .010 SEC.



                                          - - - ANTENNA INPUT PARAMETERS - - -

   TAG   SEG.    VOLTAGE (VOLTS)         CURRENT (AMPS)         IMPEDANCE (OHMS)        ADMITTANCE (MHOS)      POWER
   NO.   NO.    REAL        IMAG.       REAL        IMAG.       REAL        IMAG.       REAL        IMAG.     (WATTS)
     0 *   5 1.00000E+00 0.00000E+00 9.39002E-03-5.32895E-03 8.05525E+01 4.57145E+01 9.39002E-03-5.32895E-03 4.69501E-03



                             - - - CURRENTS AND LOCATION - - -

                     LENGTHS NORMALIZED BY WAVELENGTH (OR 2.*PI/CABS(K))

  SEG.  TAG    COORD. OF SEG. CENTER     SEG.            - - - CURRENT (AMPS) - - -
  NO.   NO.     X        Y        Z      LENGTH     REAL        IMAG.       MAG.        PHASE
     1    0    .0000    .0000   -.2189   .06254   1.9607E-03 -1.2798E-03  2.3414E-03  -33.134
     2    0    .0000    .0000   -.1564   .06254   5.3516E-03 -3.4033E-03  6.3421E-03  -32.454
     3    0    .0000    .0000   -.0938   .06254   7.8677E-03 -4.8420E-03  9.2383E-03  -31.609
     4    0    .0000    .0000   -.0313   .06254   9.2168E-03 -5.4146E-03  1.0690E-02  -30.433
     5    0    .0000    .0000    .0313   .06254   9.2168E-03 -5.4146E-03  1.0690E-02  -30.433
     6    0    .0000    .0000    .0938   .06254   7.8677E-03 -4.8420E-03  9.2383E-03  -31.609
     7    0    .0000    .0000    .1564   .06254   5.3516E-03 -3.4033E-03  6.3421E-03  -32.454
     8    0    .0000    .0000    .2189   .06254   1.9607E-03 -1.2798E-03  2.3414E-03  -33.135



                                        - - - POWER BUDGET - - -

                                           INPUT POWER   = 4.6950E-03 WATTS
                                           RADIATED POWER= 4.6950E-03 WATTS
                                           WIRE LOSS     = 0.0000E+00 WATTS
                                           EFFICIENCY    = 100.00 PERCENT



                                    - - - INPUT IMPEDANCE DATA - - -
                                             SOURCE SEGMENT NO.   5
                                             NORMALIZATION FACTOR= 5.00000E+01

       FREQ.             -  -  UNNORMALIZED IMPEDANCE  -  -                     -  -  NORMALIZED IMPEDANCE  -  -
                   RESISTANCE    REACTANCE      MAGNITUDE    PHASE       RESISTANCE    REACTANCE      MAGNITUDE    PHASE
        MHZ           OHMS          OHMS           OHMS     DEGREES                                               DEGREES

     200.000     2.65762E+01  -6.32064E+02    6.32623E+02   -87.59     5.31524E-01  -1.26413E+01    1.26525E+01   -87.59
     250.000     4.71435E+01  -2.72372E+02    2.76422E+02   -80.18     9.42869E-01  -5.44744E+00    5.52844E+00   -80.18
     300.000     8.05525E+01   4.57145E+01    9.26203E+01    29.58     1.61105E+00   9.14290E-01    1.85241E+00    29.58







 ***** INPUT LINE  4  LD   5    0    0    0  3.72000E+07  0.00000E+00  0.00000E+00  0.00000E+00  0.00000E+00  0.00000E+00
 ***** INPUT LINE  5  FR   0    1    0    0  3.00000E+02  0.00000E+00  0.00000E+00  0.00000E+00  0.00000E+00  0.00000E+00
 ***** INPUT LINE  6  EX   5    0    5    0  1.00000E+00  0.00000E+00  0.00000E+00  0.00000E+00  0.00000E+00  0.00000E+00
 ***** INPUT LINE  7  XQ   0    0    0    0  0.00000E+00  0.00000E+00  0.00000E+00  0.00000E+00  0.00000E+00  0.00000E+00




                                 - - - - - - FREQUENCY - - - - - -

                                    FREQUENCY= 3.0000E+02 MHZ
                                    WAVELENGTH= 9.9933E-01 METERS



                                  - - - ANTENNA ENVIRONMENT - - -

                                            FREE SPACE



                               - - - STRUCTURE IMPEDANCE LOADING - - -


       LOCATION          RESISTANCE   INDUCTANCE  CAPACITANCE       IMPEDANCE (OHMS)     CONDUCTIVITY    TYPE
    ITAG FROM THRU          OHMS        HENRYS       FARADS        REAL      IMAGINARY    MHOS/METER

     ALL                                                                                 3.7200E+07     WIRE  



                                - - - MATRIX TIMING - - -

                        FILL=     .030 SEC.,  FACTOR=     .000 SEC.



                                          - - - ANTENNA INPUT PARAMETERS - - -

   TAG   SEG.    VOLTAGE (VOLTS)         CURRENT (AMPS)         IMPEDANCE (OHMS)        ADMITTANCE (MHOS)      POWER
   NO.   NO.    REAL        IMAG.       REAL        IMAG.       REAL        IMAG.       REAL        IMAG.     (WATTS)
     0 *   5 1.00000E+00 0.00000E+00 6.64423E-03-3.86654E-03 1.12431E+02 6.54282E+01 6.64423E-03-3.86654E-03 3.32212E-03



                             - - - CURRENTS AND LOCATION - - -

                     LENGTHS NORMALIZED BY WAVELENGTH (OR 2.*PI/CABS(K))

  SEG.  TAG    COORD. OF SEG. CENTER     SEG.            - - - CURRENT (AMPS) - - -
  NO.   NO.     X        Y        Z      LENGTH     REAL        IMAG.       MAG.        PHASE
     1    0    .0000    .0000   -.2189   .06254   1.3862E-03 -9.6304E-04  1.6879E-03  -34.790
     2    0    .0000    .0000   -.1564   .06254   3.7847E-03 -2.5546E-03  4.5662E-03  -34.018
     3    0    .0000    .0000   -.0938   .06254   5.5658E-03 -3.6090E-03  6.6335E-03  -32.961
     4    0    .0000    .0000   -.0313   .06254   6.5215E-03 -3.9782E-03  7.6391E-03  -31.384
     5    0    .0000    .0000    .0313   .06254   6.5215E-03 -3.9782E-03  7.6391E-03  -31.384
     6    0    .0000    .0000    .0938   .06254   5.5658E-03 -3.6090E-03  6.6335E-03  -32.961
     7    0    .0000    .0000    .1564   .06254   3.7847E-03 -2.5546E-03  4.5662E-03  -34.018
     8    0    .0000    .0000    .2189   .06254   1.3862E-03 -9.6304E-04  1.6879E-03  -34.790



                                        - - - POWER BUDGET - - -

                                           INPUT POWER   = 3.3221E-03 WATTS
                                           RADIATED POWER= 2.4401E-03 WATTS
                                           WIRE LOSS     = 8.8197E-04 WATTS
                                           EFFICIENCY    =  73.45 PERCENT




 ***** INPUT LINE  8  NX   0    0    0    0  0.00000E+00  0.00000E+00  0.00000E+00  0.00000E+00  0.00000E+00  0.00000E+00
1



                                ***********************************************
                                *                                             *
                                *  NUMERICAL ELECTROMAGNETICS CODE (NEC-4.1)  *
                                *                                             *
                                ***********************************************




                      **********************************************************

                         EXAMPLE 3.  VERTICAL HALF WAVELENGTH ANTENNA OVER GROUND                      
                                     1. PERFECT GROUND                                                 
                                     2. IMPERFECT GROUND INCLUDING GROUND WAVE AND RECEIVING           
                                        PATTERN CALCULATIONS                                           

                      **********************************************************





                                 - - - STRUCTURE SPECIFICATION - - -

                                     COORDINATES MUST BE INPUT IN
                                     METERS OR BE SCALED TO METERS
                                     BEFORE STRUCTURE INPUT IS ENDED


  WIRE                                                                               NO. OF    FIRST  LAST     TAG
  NO.        X1         Y1         Z1          X2         Y2         Z2      RADIUS   SEG.     SEG.   SEG.     NO.
     1     .00000     .00000    2.00000      .00000     .00000    7.00000     .30000      9        1     9       0

   GROUND PLANE SPECIFIED.

   WHERE WIRE ENDS TOUCH GROUND, CURRENT WILL BE INTERPOLATED TO IMAGE IN GROUND PLANE.


   TOTAL SEGMENTS USED=    9     NO. SEG. IN A SYMMETRIC CELL=    9     SYMMETRY FLAG=  0


         - MULTIPLE WIRE JUNCTIONS -
 JUNCTION    SEGMENTS  (- FOR END 1, + FOR END 2)
  NONE




                                 - - - - SEGMENTATION DATA - - - -

                                        COORDINATES IN METERS

                         I+ AND I- INDICATE THE SEGMENTS BEFORE AND AFTER I


  SEG.   COORDINATES OF SEG. CENTER     SEG.     ORIENTATION ANGLES    WIRE    CONNECTION DATA   TAG
  NO.       X         Y         Z       LENGTH     ALPHA     BETA      RADIUS    I-   I    I+    NO.
     1    .00000    .00000   2.27778    .55556   90.00000    .00000    .30000     0    1    2      0
     2    .00000    .00000   2.83333    .55556   90.00000    .00000    .30000     1    2    3      0
     3    .00000    .00000   3.38889    .55556   90.00000    .00000    .30000     2    3    4      0
     4    .00000    .00000   3.94444    .55556   90.00000    .00000    .30000     3    4    5      0
     5    .00000    .00000   4.50000    .55556   90.00000    .00000    .30000     4    5    6      0
     6    .00000    .00000   5.05556    .55556   90.00000    .00000    .30000     5    6    7      0
     7    .00000    .00000   5.61111    .55556   90.00000    .00000    .30000     6    7    8      0
     8    .00000    .00000   6.16667    .55556   90.00000    .00000    .30000     7    8    9      0
     9    .00000    .00000   6.72222    .55556   90.00000    .00000    .30000     8    9    0      0




 ***** INPUT LINE  1  FR   0    1    0    0  3.00000E+01  0.00000E+00  0.00000E+00  0.00000E+00  0.00000E+00  0.00000E+00
 ***** INPUT LINE  2  EX   0    0    5    0  1.00000E+00  0.00000E+00  0.00000E+00  0.00000E+00  0.00000E+00  0.00000E+00
 ***** INPUT LINE  3  GN   1    0    0    0  0.00000E+00  0.00000E+00  0.00000E+00  0.00000E+00  0.00000E+00  0.00000E+00
 ***** INPUT LINE  4  RP   0   10    2 1301  0.00000E+00  0.00000E+00  1.00000E+01  9.00000E+01  0.00000E+00  0.00000E+00




                                 - - - - - - FREQUENCY - - - - - -

                                    FREQUENCY= 3.0000E+01 MHZ
                                    WAVELENGTH= 9.9933E+00 METERS



                                  - - - ANTENNA ENVIRONMENT - - -

                                          PERFECT GROUND



                               - - - STRUCTURE IMPEDANCE LOADING - - -

                                   THIS STRUCTURE IS NOT LOADED



                                - - - MATRIX TIMING - - -

                        FILL=     .050 SEC.,  FACTOR=     .000 SEC.



                                          - - - ANTENNA INPUT PARAMETERS - - -

   TAG   SEG.    VOLTAGE (VOLTS)         CURRENT (AMPS)         IMPEDANCE (OHMS)        ADMITTANCE (MHOS)      POWER
   NO.   NO.    REAL        IMAG.       REAL        IMAG.       REAL        IMAG.       REAL        IMAG.     (WATTS)
     0     5 1.00000E+00 0.00000E+00 9.45359E-03-2.45171E-05 1.05779E+02 2.74330E-01 9.45359E-03-2.45171E-05 4.72680E-03



                             - - - CURRENTS AND LOCATION - - -

                     LENGTHS NORMALIZED BY WAVELENGTH (OR 2.*PI/CABS(K))

  SEG.  TAG    COORD. OF SEG. CENTER     SEG.            - - - CURRENT (AMPS) - - -
  NO.   NO.     X        Y        Z      LENGTH     REAL        IMAG.       MAG.        PHASE
     1    0    .0000    .0000    .2279   .05559   2.8919E-03 -2.5813E-03  3.8763E-03  -41.752
     2    0    .0000    .0000    .2835   .05559   5.5642E-03 -4.1603E-03  6.9475E-03  -36.785
     3    0    .0000    .0000    .3391   .05559   7.5810E-03 -4.6063E-03  8.8707E-03  -31.283
     4    0    .0000    .0000    .3947   .05559   8.9151E-03 -4.0180E-03  9.7787E-03  -24.261
     5    0    .0000    .0000    .4503   .05559   9.4536E-03 -2.4517E-05  9.4536E-03    -.149
     6    0    .0000    .0000    .5059   .05559   9.1337E-03 -4.0356E-03  9.9855E-03  -23.838
     7    0    .0000    .0000    .5615   .05559   7.9642E-03 -4.6311E-03  9.2128E-03  -30.178
     8    0    .0000    .0000    .6171   .05559   6.0055E-03 -4.1764E-03  7.3149E-03  -34.816
     9    0    .0000    .0000    .6727   .05559   3.2249E-03 -2.5767E-03  4.1278E-03  -38.625



                                        - - - POWER BUDGET - - -

                                           INPUT POWER   = 4.7268E-03 WATTS
                                           RADIATED POWER= 4.7268E-03 WATTS
                                           WIRE LOSS     = 0.0000E+00 WATTS
                                           EFFICIENCY    = 100.00 PERCENT



                                                - - - RADIATION PATTERNS - - -

  - - ANGLES - -          - POWER GAINS -        - - - POLARIZATION - - -    - - - E(THETA) - - -    - - - E(PHI) - - -
  THETA     PHI        VERT.   HOR.    TOTAL      AXIAL     TILT   SENSE     MAGNITUDE    PHASE      MAGNITUDE    PHASE 
 DEGREES  DEGREES       DB      DB      DB        RATIO     DEG.               VOLTS     DEGREES       VOLTS     DEGREES
     .00      .00    -999.99 -999.99 -999.99     .00000      .00            0.00000E+00      .00    0.00000E+00      .00
   10.00      .00      -9.88 -999.99   -9.88     .00000      .00  LINEAR    1.70726E-01  -113.54    0.00000E+00      .00
   20.00      .00      -4.21 -999.99   -4.21     .00000      .00  LINEAR    3.27688E-01  -113.81    0.00000E+00      .00
   30.00      .00      -1.71 -999.99   -1.71     .00000      .00  LINEAR    4.37005E-01  -114.19    0.00000E+00      .00
   40.00      .00      -1.76 -999.99   -1.76     .00000      .00  LINEAR    4.34908E-01  -114.57    0.00000E+00      .00
   50.00      .00      -6.75 -999.99   -6.75     .00000      .00  LINEAR    2.44874E-01  -114.53    0.00000E+00      .00
   60.00      .00     -10.06 -999.99  -10.06     .00000      .00  LINEAR    1.67177E-01    62.40    0.00000E+00      .00
   70.00      .00       2.65 -999.99    2.65     .00000      .00  LINEAR    7.22664E-01    63.29    0.00000E+00      .00
   80.00      .00       7.18 -999.99    7.18     .00000      .00  LINEAR    1.21714E+00    63.24    0.00000E+00      .00
   90.00      .00       8.50 -999.99    8.50     .00000      .00  LINEAR    1.41677E+00    63.20    0.00000E+00      .00
     .00    90.00    -999.99 -999.99 -999.99     .00000      .00            0.00000E+00      .00    0.00000E+00      .00
   10.00    90.00      -9.88 -999.99   -9.88     .00000      .00  LINEAR    1.70726E-01  -113.54    0.00000E+00      .00
   20.00    90.00      -4.21 -999.99   -4.21     .00000      .00  LINEAR    3.27688E-01  -113.81    0.00000E+00      .00
   30.00    90.00      -1.71 -999.99   -1.71     .00000      .00  LINEAR    4.37005E-01  -114.19    0.00000E+00      .00
   40.00    90.00      -1.76 -999.99   -1.76     .00000      .00  LINEAR    4.34908E-01  -114.57    0.00000E+00      .00
   50.00    90.00      -6.75 -999.99   -6.75     .00000      .00  LINEAR    2.44874E-01  -114.53    0.00000E+00      .00
   60.00    90.00     -10.06 -999.99  -10.06     .00000      .00  LINEAR    1.67177E-01    62.40    0.00000E+00      .00
   70.00    90.00       2.65 -999.99    2.65     .00000      .00  LINEAR    7.22664E-01    63.29    0.00000E+00      .00
   80.00    90.00       7.18 -999.99    7.18     .00000      .00  LINEAR    1.21714E+00    63.24    0.00000E+00      .00
   90.00    90.00       8.50 -999.99    8.50     .00000      .00  LINEAR    1.41677E+00    63.20    0.00000E+00      .00


   AVERAGE POWER GAIN= 2.01877E+00       SOLID ANGLE USED IN AVERAGING=(  .5000)*PI STERADIANS.

   POWER RADIATED ASSUMING RADIATION INTO 4*PI STERADIANS = 9.54230E-03 WATTS




                                     - - - - NORMALIZED GAIN - - - -

                                        VERTICAL GAIN
                                      NORMALIZATION FACTOR =     8.50 DB

    - - ANGLES - -      GAIN           - - ANGLES - -      GAIN           - - ANGLES - -      GAIN
    THETA     PHI        DB            THETA     PHI        DB            THETA     PHI        DB
   DEGREES  DEGREES                   DEGREES  DEGREES                   DEGREES  DEGREES
       .00      .00  -1008.49           70.00      .00     -5.85           40.00    90.00    -10.26
     10.00      .00    -18.38           80.00      .00     -1.32           50.00    90.00    -15.25
     20.00      .00    -12.72           90.00      .00       .00           60.00    90.00    -18.56
     30.00      .00    -10.22             .00    90.00  -1008.49           70.00    90.00     -5.85
     40.00      .00    -10.26           10.00    90.00    -18.38           80.00    90.00     -1.32
     50.00      .00    -15.25           20.00    90.00    -12.72           90.00    90.00       .00
     60.00      .00    -18.56           30.00    90.00    -10.22      




 ***** INPUT LINE  5  GN   0    0    0    0  6.00000E+00  1.00000E-03  0.00000E+00  0.00000E+00  0.00000E+00  0.00000E+00
 ***** INPUT LINE  6  RP   0   10    2 1301  0.00000E+00  0.00000E+00  1.00000E+01  9.00000E+01  0.00000E+00  0.00000E+00




                                 - - - - - - FREQUENCY - - - - - -

                                    FREQUENCY= 3.0000E+01 MHZ
                                    WAVELENGTH= 9.9933E+00 METERS



                                  - - - ANTENNA ENVIRONMENT - - -

                                        FINITE GROUND.  REFLECTION COEFFICIENT APPROXIMATION
                                        RELATIVE DIELECTRIC CONST.=  6.000
                                        CONDUCTIVITY= 1.000E-03 MHOS/METER
                                        COMPLEX DIELECTRIC CONSTANT= 6.00000E+00-5.99183E-01



                               - - - STRUCTURE IMPEDANCE LOADING - - -

                                   THIS STRUCTURE IS NOT LOADED



                                - - - MATRIX TIMING - - -

                        FILL=     .050 SEC.,  FACTOR=     .000 SEC.



                                          - - - ANTENNA INPUT PARAMETERS - - -

   TAG   SEG.    VOLTAGE (VOLTS)         CURRENT (AMPS)         IMPEDANCE (OHMS)        ADMITTANCE (MHOS)      POWER
   NO.   NO.    REAL        IMAG.       REAL        IMAG.       REAL        IMAG.       REAL        IMAG.     (WATTS)
     0     5 1.00000E+00 0.00000E+00 9.04515E-03-5.38014E-05 1.10553E+02 6.57577E-01 9.04515E-03-5.38014E-05 4.52258E-03



                             - - - CURRENTS AND LOCATION - - -

                     LENGTHS NORMALIZED BY WAVELENGTH (OR 2.*PI/CABS(K))

  SEG.  TAG    COORD. OF SEG. CENTER     SEG.            - - - CURRENT (AMPS) - - -
  NO.   NO.     X        Y        Z      LENGTH     REAL        IMAG.       MAG.        PHASE
     1    0    .0000    .0000    .2279   .05559   2.8751E-03 -2.5567E-03  3.8475E-03  -41.646
     2    0    .0000    .0000    .2835   .05559   5.4615E-03 -4.1520E-03  6.8605E-03  -37.243
     3    0    .0000    .0000    .3391   .05559   7.3684E-03 -4.6190E-03  8.6965E-03  -32.082
     4    0    .0000    .0000    .3947   .05559   8.5928E-03 -4.0447E-03  9.4972E-03  -25.207
     5    0    .0000    .0000    .4503   .05559   9.0452E-03 -5.3801E-05  9.0453E-03    -.341
     6    0    .0000    .0000    .5059   .05559   8.6815E-03 -4.0567E-03  9.5826E-03  -25.046
     7    0    .0000    .0000    .5615   .05559   7.5241E-03 -4.6375E-03  8.8384E-03  -31.648
     8    0    .0000    .0000    .6171   .05559   5.6410E-03 -4.1681E-03  7.0139E-03  -36.461
     9    0    .0000    .0000    .6727   .05559   3.0109E-03 -2.5621E-03  3.9535E-03  -40.396



                                        - - - POWER BUDGET - - -

                                           INPUT POWER   = 4.5226E-03 WATTS
                                           RADIATED POWER= 4.5226E-03 WATTS
                                           WIRE LOSS     = 0.0000E+00 WATTS
                                           EFFICIENCY    = 100.00 PERCENT



                                                - - - RADIATION PATTERNS - - -

  - - ANGLES - -          - POWER GAINS -        - - - POLARIZATION - - -    - - - E(THETA) - - -    - - - E(PHI) - - -
  THETA     PHI        VERT.   HOR.    TOTAL      AXIAL     TILT   SENSE     MAGNITUDE    PHASE      MAGNITUDE    PHASE 
 DEGREES  DEGREES       DB      DB      DB        RATIO     DEG.               VOLTS     DEGREES       VOLTS     DEGREES
     .00      .00    -999.99 -999.99 -999.99     .00000      .00            0.00000E+00      .00    0.00000E+00      .00
   10.00      .00     -12.88 -999.99  -12.88     .00000      .00  LINEAR    1.18226E-01  -123.90    0.00000E+00      .00
   20.00      .00      -7.19 -999.99   -7.19     .00000      .00  LINEAR    2.27567E-01  -128.12    0.00000E+00      .00
   30.00      .00      -4.48 -999.99   -4.48     .00000      .00  LINEAR    3.10746E-01  -136.54    0.00000E+00      .00
   40.00      .00      -3.47 -999.99   -3.47     .00000      .00  LINEAR    3.49292E-01  -152.66    0.00000E+00      .00
   50.00      .00      -2.96 -999.99   -2.96     .00000      .00  LINEAR    3.70490E-01   177.80    0.00000E+00      .00
   60.00      .00       -.81 -999.99    -.81     .00000      .00  LINEAR    4.74476E-01   142.78    0.00000E+00      .00
   70.00      .00       1.52 -999.99    1.52     .00000      .00  LINEAR    6.20232E-01   121.07    0.00000E+00      .00
   80.00      .00        .62 -999.99     .62     .00000      .00  LINEAR    5.59348E-01   111.10    0.00000E+00      .00
   90.00      .00    -125.10 -999.99 -125.10     .00000      .00  LINEAR    2.89517E-07   -75.96    0.00000E+00      .00
     .00    90.00    -999.99 -999.99 -999.99     .00000      .00            0.00000E+00      .00    0.00000E+00      .00
   10.00    90.00     -12.88 -999.99  -12.88     .00000      .00  LINEAR    1.18226E-01  -123.90    0.00000E+00      .00
   20.00    90.00      -7.19 -999.99   -7.19     .00000      .00  LINEAR    2.27567E-01  -128.12    0.00000E+00      .00
   30.00    90.00      -4.48 -999.99   -4.48     .00000      .00  LINEAR    3.10746E-01  -136.54    0.00000E+00      .00
   40.00    90.00      -3.47 -999.99   -3.47     .00000      .00  LINEAR    3.49292E-01  -152.66    0.00000E+00      .00
   50.00    90.00      -2.96 -999.99   -2.96     .00000      .00  LINEAR    3.70490E-01   177.80    0.00000E+00      .00
   60.00    90.00       -.81 -999.99    -.81     .00000      .00  LINEAR    4.74476E-01   142.78    0.00000E+00      .00
   70.00    90.00       1.52 -999.99    1.52     .00000      .00  LINEAR    6.20232E-01   121.07    0.00000E+00      .00
   80.00    90.00        .62 -999.99     .62     .00000      .00  LINEAR    5.59348E-01   111.10    0.00000E+00      .00
   90.00    90.00    -125.10 -999.99 -125.10     .00000      .00  LINEAR    2.89517E-07   -75.96    0.00000E+00      .00


   AVERAGE POWER GAIN= 7.17751E-01       SOLID ANGLE USED IN AVERAGING=(  .5000)*PI STERADIANS.

   POWER RADIATED ASSUMING RADIATION INTO 4*PI STERADIANS = 3.24608E-03 WATTS




                                     - - - - NORMALIZED GAIN - - - -

                                        VERTICAL GAIN
                                      NORMALIZATION FACTOR =     1.52 DB

    - - ANGLES - -      GAIN           - - ANGLES - -      GAIN           - - ANGLES - -      GAIN
    THETA     PHI        DB            THETA     PHI        DB            THETA     PHI        DB
   DEGREES  DEGREES                   DEGREES  DEGREES                   DEGREES  DEGREES
       .00      .00  -1001.51           70.00      .00       .00           40.00    90.00     -4.99
     10.00      .00    -14.40           80.00      .00      -.90           50.00    90.00     -4.48
     20.00      .00     -8.71           90.00      .00   -126.62           60.00    90.00     -2.33
     30.00      .00     -6.00             .00    90.00  -1001.51           70.00    90.00       .00
     40.00      .00     -4.99           10.00    90.00    -14.40           80.00    90.00      -.90
     50.00      .00     -4.48           20.00    90.00     -8.71           90.00    90.00   -126.62
     60.00      .00     -2.33           30.00    90.00     -6.00      




 ***** INPUT LINE  7  RP   1   10    1    0  1.00000E+00  0.00000E+00  2.00000E+00  0.00000E+00  1.00000E+05  0.00000E+00



                             - - - RADIATED FIELDS NEAR GROUND - - -

        - - - LOCATION - - -          - - E(THETA) - -        - - E(PHI) - -        - - E(RADIAL) - -
       RHO      PHI         Z            MAG      PHASE         MAG      PHASE         MAG      PHASE
     METERS   DEGREES    METERS        VOLTS/M   DEGREES      VOLTS/M   DEGREES      VOLTS/M   DEGREES

   100000.00      .00       1.00     2.5165E-09   138.98    0.0000E+00      .00    8.3425E-10   -44.65
   100000.00      .00       3.00     3.1256E-09   147.43    0.0000E+00      .00    8.3494E-10   -44.70
   100000.00      .00       5.00     3.7802E-09   153.05    0.0000E+00      .00    8.3562E-10   -44.75
   100000.00      .00       7.00     4.4602E-09   156.98    0.0000E+00      .00    8.3631E-10   -44.80
   100000.00      .00       9.00     5.1555E-09   159.86    0.0000E+00      .00    8.3700E-10   -44.85
   100000.00      .00      11.00     5.8606E-09   162.05    0.0000E+00      .00    8.3769E-10   -44.90
   100000.00      .00      13.00     6.5725E-09   163.77    0.0000E+00      .00    8.3838E-10   -44.95
   100000.00      .00      15.00     7.2890E-09   165.15    0.0000E+00      .00    8.3907E-10   -45.00
   100000.00      .00      17.00     8.0081E-09   166.18    0.0000E+00      .00    8.4253E-10   -45.37
   100000.00      .00      19.00     8.7317E-09   167.02    0.0000E+00      .00    8.4748E-10   -45.77






 ***** INPUT LINE  8  EX   1   10    1    0  0.00000E+00  0.00000E+00  0.00000E+00  1.00000E+01  0.00000E+00  0.00000E+00
 ***** INPUT LINE  9  PT   2    0    5    5  0.00000E+00  0.00000E+00  0.00000E+00  0.00000E+00  0.00000E+00  0.00000E+00
 ***** INPUT LINE 10  XQ   0    0    0    0  0.00000E+00  0.00000E+00  0.00000E+00  0.00000E+00  0.00000E+00  0.00000E+00



                                 - - - RECEIVING PATTERN PARAMETERS - - -
                                           ETA=    .00 DEGREES
                                           TYPE -LINEAR
                                           AXIAL RATIO=  .000

           THETA      PHI          -  CURRENT  -         SEG
           (DEG)     (DEG)       MAGNITUDE    PHASE      NO.

              .00       .00     0.0000E+00       .00        5
            10.00       .00     6.2726E-03    -33.91        5
            20.00       .00     1.2071E-02    -38.13        5
            30.00       .00     1.6476E-02    -46.55        5
            40.00       .00     1.8511E-02    -62.66        5
            50.00       .00     1.9625E-02    -92.20        5
            60.00       .00     2.5121E-02   -127.22        5
            70.00       .00     3.2827E-02   -148.93        5
            80.00       .00     2.9598E-02   -158.89        5
            90.00       .00     1.2238E-08     17.31        5



                                - - - NORMALIZED RECEIVING PATTERN - - -
                                         NORMALIZATION FACTOR= 3.2827E-02
                                         ETA=    .00 DEGREES
                                         TYPE -LINEAR
                                         AXIAL RATIO=  .000
                                         SEGMENT NO.=    5

                     THETA      PHI         -  PATTERN  -
                     (DEG)     (DEG)        DB        MAGNITUDE

                        .00       .00    -999.99     0.0000E+00
                      10.00       .00     -14.38     1.9108E-01
                      20.00       .00      -8.69     3.6771E-01
                      30.00       .00      -5.99     5.0191E-01
                      40.00       .00      -4.98     5.6390E-01
                      50.00       .00      -4.47     5.9783E-01
                      60.00       .00      -2.32     7.6527E-01
                      70.00       .00        .00     1.0000E+00
                      80.00       .00       -.90     9.0163E-01
                      90.00       .00    -128.57     3.7282E-07




 ***** INPUT LINE 11  NX   0    0    0    0  0.00000E+00  0.00000E+00  0.00000E+00  0.00000E+00  0.00000E+00  0.00000E+00
1



                                ***********************************************
                                *                                             *
                                *  NUMERICAL ELECTROMAGNETICS CODE (NEC-4.1)  *
                                *                                             *
                                ***********************************************




                      **********************************************************

                         EXAMPLE 4.  T ANTENNA ON A BOX OVER PERFECT GROUND                            

                      **********************************************************





                                 - - - STRUCTURE SPECIFICATION - - -

                                     COORDINATES MUST BE INPUT IN
                                     METERS OR BE SCALED TO METERS
                                     BEFORE STRUCTURE INPUT IS ENDED


  WIRE                                                                               NO. OF    FIRST  LAST     TAG
  NO.        X1         Y1         Z1          X2         Y2         Z2      RADIUS   SEG.     SEG.   SEG.     NO.
     1P    .10000     .05000     .05000      .00000     .00000     .01000
     2P    .05000     .10000     .05000      .00000   90.00000     .01000
      STRUCTURE REFLECTED ALONG THE AXES X Y  .  TAGS INCREMENTED BY    0
     9P    .00000     .00000     .10000    90.00000     .00000     .04000
     1     .00000     .00000     .10000      .00000     .00000     .30000     .00100      4        1     4       1
     2     .00000     .00000     .30000      .15000     .00000     .30000     .00100      2        5     6       2
     3     .00000     .00000     .30000     -.15000     .00000     .30000     .00100      2        7     8       3

   GROUND PLANE SPECIFIED.

   WHERE WIRE ENDS TOUCH GROUND, CURRENT WILL BE INTERPOLATED TO IMAGE IN GROUND PLANE.


   TOTAL SEGMENTS USED=    8     NO. SEG. IN A SYMMETRIC CELL=    8     SYMMETRY FLAG=  0
   TOTAL PATCHES USED=   12      NO. PATCHES IN A SYMMETRIC CELL=   12


         - MULTIPLE WIRE JUNCTIONS -
 JUNCTION    SEGMENTS  (- FOR END 1, + FOR END 2)
     1         4   -5   -7




                                 - - - - SEGMENTATION DATA - - - -

                                        COORDINATES IN METERS

                         I+ AND I- INDICATE THE SEGMENTS BEFORE AND AFTER I


  SEG.   COORDINATES OF SEG. CENTER     SEG.     ORIENTATION ANGLES    WIRE    CONNECTION DATA   TAG
  NO.       X         Y         Z       LENGTH     ALPHA     BETA      RADIUS    I-   I    I+    NO.
     1    .00000    .00000    .12500    .05000   90.00000    .00000    .00100 10009    1    2      1
     2    .00000    .00000    .17500    .05000   90.00000    .00000    .00100     1    2    3      1
     3    .00000    .00000    .22500    .05000   90.00000    .00000    .00100     2    3    4      1
     4    .00000    .00000    .27500    .05000   90.00000    .00000    .00100     3    4    5      1
     5    .03750    .00000    .30000    .07500     .00000    .00000    .00100    -7    5    6      2
     6    .11250    .00000    .30000    .07500     .00000    .00000    .00100     5    6    0      2
     7   -.03750    .00000    .30000    .07500     .00000 180.00000    .00100     4    7    8      3
     8   -.11250    .00000    .30000    .07500     .00000 180.00000    .00100     7    8    0      3




                                            - - - SURFACE PATCH DATA - - -

                                                 COORDINATES IN METERS

 PATCH     COORD. OF PATCH CENTER       UNIT NORMAL VECTOR      PATCH            COMPONENTS OF UNIT TANGENT VECTORS
  NO.      X         Y         Z         X       Y       Z       AREA       X1      Y1      Z1       X2      Y2      Z2
    1    .10000    .05000    .05000   1.0000   .0000   .0000    .01000    .0000  1.0000   .0000    .0000   .0000  1.0000
    2    .05000    .10000    .05000    .0000  1.0000   .0000    .01000  -1.0000   .0000   .0000    .0000   .0000  1.0000
    3    .10000   -.05000    .05000   1.0000   .0000   .0000    .01000    .0000 -1.0000   .0000    .0000   .0000  1.0000
    4    .05000   -.10000    .05000    .0000 -1.0000   .0000    .01000  -1.0000   .0000   .0000    .0000   .0000  1.0000
    5   -.10000    .05000    .05000  -1.0000   .0000   .0000    .01000    .0000  1.0000   .0000    .0000   .0000  1.0000
    6   -.05000    .10000    .05000    .0000  1.0000   .0000    .01000   1.0000   .0000   .0000    .0000   .0000  1.0000
    7   -.10000   -.05000    .05000  -1.0000   .0000   .0000    .01000    .0000 -1.0000   .0000    .0000   .0000  1.0000
    8   -.05000   -.10000    .05000    .0000 -1.0000   .0000    .01000   1.0000   .0000   .0000    .0000   .0000  1.0000
    9    .05000    .05000    .10000    .0000   .0000  1.0000    .01000   1.0000   .0000   .0000    .0000  1.0000   .0000
   10   -.05000    .05000    .10000    .0000   .0000  1.0000    .01000   1.0000   .0000   .0000    .0000  1.0000   .0000
   11   -.05000   -.05000    .10000    .0000   .0000  1.0000    .01000   1.0000   .0000   .0000    .0000  1.0000   .0000
   12    .05000   -.05000    .10000    .0000   .0000  1.0000    .01000   1.0000   .0000   .0000    .0000  1.0000   .0000




 ***** INPUT LINE  1  GN   1    0    0    0  0.00000E+00  0.00000E+00  0.00000E+00  0.00000E+00  0.00000E+00  0.00000E+00
 ***** INPUT LINE  2  EX   0    1    1    0  1.00000E+00  0.00000E+00  0.00000E+00  0.00000E+00  0.00000E+00  0.00000E+00
 ***** INPUT LINE  3  RP   0   10    4 1001  0.00000E+00  0.00000E+00  1.00000E+01  3.00000E+01  0.00000E+00  0.00000E+00




                                 - - - - - - FREQUENCY - - - - - -

                                    FREQUENCY= 2.9980E+02 MHZ
                                    WAVELENGTH= 1.0000E+00 METERS



                                  - - - ANTENNA ENVIRONMENT - - -

                                          PERFECT GROUND



                               - - - STRUCTURE IMPEDANCE LOADING - - -

                                   THIS STRUCTURE IS NOT LOADED



                                - - - MATRIX TIMING - - -

                        FILL=     .150 SEC.,  FACTOR=     .040 SEC.



                                          - - - ANTENNA INPUT PARAMETERS - - -

   TAG   SEG.    VOLTAGE (VOLTS)         CURRENT (AMPS)         IMPEDANCE (OHMS)        ADMITTANCE (MHOS)      POWER
   NO.   NO.    REAL        IMAG.       REAL        IMAG.       REAL        IMAG.       REAL        IMAG.     (WATTS)
     1     1 1.00000E+00 0.00000E+00 2.17993E-03-2.66254E-03 1.84097E+02 2.24854E+02 2.17993E-03-2.66254E-03 1.08996E-03



                             - - - CURRENTS AND LOCATION - - -

                     LENGTHS NORMALIZED BY WAVELENGTH (OR 2.*PI/CABS(K))

  SEG.  TAG    COORD. OF SEG. CENTER     SEG.            - - - CURRENT (AMPS) - - -
  NO.   NO.     X        Y        Z      LENGTH     REAL        IMAG.       MAG.        PHASE
     1    1    .0000    .0000    .1250   .05000   2.1799E-03 -2.6625E-03  3.4411E-03  -50.691
     2    1    .0000    .0000    .1750   .05000   2.1579E-03 -3.4413E-03  4.0619E-03  -57.911
     3    1    .0000    .0000    .2250   .05000   2.0988E-03 -3.8734E-03  4.4055E-03  -61.549
     4    1    .0000    .0000    .2750   .05000   1.9793E-03 -3.8860E-03  4.3611E-03  -63.008
     5    2    .0375    .0000    .3000   .07500   7.9588E-04 -1.5851E-03  1.7737E-03  -63.340
     6    2    .1125    .0000    .3000   .07500   3.1430E-04 -6.4731E-04  7.1957E-04  -64.101
     7    3   -.0375    .0000    .3000   .07500   7.9588E-04 -1.5851E-03  1.7737E-03  -63.339
     8    3   -.1125    .0000    .3000   .07500   3.1430E-04 -6.4730E-04  7.1957E-04  -64.101




                                         - - - - SURFACE PATCH CURRENTS - - - -

                                                  DISTANCES IN WAVELENGTHS (2.*PI/CABS(K))
                                                  CURRENT IN AMPS/METER

                            - - SURFACE COMPONENTS - -                   - - - RECTANGULAR COMPONENTS - - -
      PATCH CENTER      TANGENT VECTOR 1   TANGENT VECTOR 2           X                   Y                   Z
     X      Y      Z     MAG.       PHASE   MAG.       PHASE    REAL      IMAG.     REAL      IMAG.     REAL      IMAG. 
    1
    .100   .050   .050 1.1832E-03  111.34 8.2597E-03 -116.30  0.00E+00  0.00E+00 -4.30E-04  1.10E-03 -3.66E-03 -7.40E-03
    2
    .050   .100   .050 1.1755E-03  -68.82 8.0984E-03 -117.13 -4.25E-04  1.10E-03 -1.86E-11  4.79E-11 -3.69E-03 -7.21E-03
    3
    .100  -.050   .050 1.1832E-03  111.34 8.2597E-03 -116.30  0.00E+00  0.00E+00  4.30E-04 -1.10E-03 -3.66E-03 -7.40E-03
    4
    .050  -.100   .050 1.1755E-03  -68.82 8.0984E-03 -117.13 -4.25E-04  1.10E-03  1.86E-11 -4.79E-11 -3.69E-03 -7.21E-03
    5
   -.100   .050   .050 1.1832E-03  111.34 8.2597E-03 -116.30  0.00E+00  0.00E+00 -4.30E-04  1.10E-03 -3.66E-03 -7.40E-03
    6
   -.050   .100   .050 1.1755E-03  -68.82 8.0984E-03 -117.13  4.25E-04 -1.10E-03 -1.86E-11  4.79E-11 -3.69E-03 -7.21E-03
    7
   -.100  -.050   .050 1.1832E-03  111.34 8.2597E-03 -116.30  0.00E+00  0.00E+00  4.30E-04 -1.10E-03 -3.66E-03 -7.40E-03
    8
   -.050  -.100   .050 1.1755E-03  -68.82 8.0984E-03 -117.13  4.25E-04 -1.10E-03  1.86E-11 -4.79E-11 -3.69E-03 -7.21E-03
    9
    .050   .050   .100 6.8284E-03  111.24 6.6278E-03  111.27 -2.47E-03  6.36E-03 -2.40E-03  6.18E-03  0.00E+00  0.00E+00
   10
   -.050   .050   .100 6.8284E-03  -68.76 6.6278E-03  111.27  2.47E-03 -6.36E-03 -2.40E-03  6.18E-03  0.00E+00  0.00E+00
   11
   -.050  -.050   .100 6.8284E-03  -68.76 6.6278E-03  -68.73  2.47E-03 -6.36E-03  2.40E-03 -6.18E-03  0.00E+00  0.00E+00
   12
    .050  -.050   .100 6.8284E-03  111.24 6.6278E-03  -68.73 -2.47E-03  6.36E-03  2.40E-03 -6.18E-03  0.00E+00  0.00E+00



                                        - - - POWER BUDGET - - -

                                           INPUT POWER   = 1.0900E-03 WATTS
                                           RADIATED POWER= 1.0900E-03 WATTS
                                           WIRE LOSS     = 0.0000E+00 WATTS
                                           EFFICIENCY    = 100.00 PERCENT



                                                - - - RADIATION PATTERNS - - -

  - - ANGLES - -          - POWER GAINS -        - - - POLARIZATION - - -    - - - E(THETA) - - -    - - - E(PHI) - - -
  THETA     PHI        VERT.   HOR.    TOTAL      AXIAL     TILT   SENSE     MAGNITUDE    PHASE      MAGNITUDE    PHASE 
 DEGREES  DEGREES       DB      DB      DB        RATIO     DEG.               VOLTS     DEGREES       VOLTS     DEGREES
     .00      .00    -134.22 -142.13 -133.57     .11379    21.13  LEFT      4.97118E-08   -94.62    2.00102E-08   -75.69
   10.00      .00     -13.76 -142.34  -13.76     .00000      .00  LINEAR    5.24152E-02    -8.09    1.95206E-08   -76.83
   20.00      .00      -7.53 -142.31   -7.53     .00000      .00  LINEAR    1.07389E-01    -6.16    1.95866E-08   -69.84
   30.00      .00      -3.71 -143.52   -3.71     .00000      .00  LINEAR    1.66732E-01    -3.44    1.70369E-08   -67.37
   40.00      .00       -.90 -144.25    -.90     .00000      .00  LINEAR    2.30546E-01     -.47    1.56671E-08   -66.58
   50.00      .00       1.28 -146.50    1.28     .00000      .00  LINEAR    2.96354E-01     2.31    1.20910E-08   -70.90
   60.00      .00       2.95 -148.74    2.95     .00000      .00  LINEAR    3.58947E-01     4.60    9.34847E-09   -64.46
   70.00      .00       4.13 -152.29    4.13     .00000      .00  LINEAR    4.11285E-01     6.28    6.21332E-09   -76.94
   80.00      .00       4.84 -156.86    4.84     .00000      .00  LINEAR    4.46239E-01     7.29    3.66976E-09   -52.49
   90.00      .00       5.07 -170.41    5.07     .00000      .00  LINEAR    4.58537E-01     7.63    7.70776E-10     8.95
     .00    30.00    -133.73 -148.02 -133.57     .11379    -8.87  LEFT      5.26162E-08   -91.08    1.01589E-08    51.80
   10.00    30.00     -14.02  -37.74  -14.00     .03788    -3.04  RIGHT     5.08749E-02    -9.29    3.31671E-03  -153.65
   20.00    30.00      -7.78  -31.70   -7.76     .03512    -3.04  RIGHT     1.04393E-01    -7.22    6.65068E-03  -153.65
   30.00    30.00      -3.93  -28.28   -3.92     .03081    -2.99  RIGHT     1.62562E-01    -4.29    9.85483E-03  -153.65
   40.00    30.00      -1.08  -26.20   -1.07     .02548    -2.82  RIGHT     2.25791E-01    -1.09    1.25178E-02  -153.65
   50.00    30.00       1.15  -25.23    1.16     .01980    -2.50  RIGHT     2.91871E-01     1.90    1.39927E-02  -153.65
   60.00    30.00       2.87  -25.49    2.87     .01428    -2.03  RIGHT     3.55596E-01     4.37    1.35918E-02  -153.65
   70.00    30.00       4.09  -27.40    4.10     .00918    -1.43  RIGHT     4.09539E-01     6.17    1.09041E-02  -153.65
   80.00    30.00       4.83  -32.45    4.83     .00447     -.74  RIGHT     4.45896E-01     7.26    6.09517E-03  -153.65
   90.00    30.00       5.08 -157.30    5.08     .00000      .00  LINEAR    4.58750E-01     7.62    3.48711E-09     7.16
     .00    60.00    -135.76 -137.59 -133.57     .11379   -38.87  LEFT      4.16298E-08   -86.86    3.37436E-08    79.87
   10.00    60.00     -14.55  -37.73  -14.53     .04285    -3.12  RIGHT     4.78614E-02   -11.92    3.32117E-03  -153.66
   20.00    60.00      -8.29  -31.65   -8.27     .03966    -3.15  RIGHT     9.84705E-02    -9.54    6.68450E-03  -153.66
   30.00    60.00      -4.39  -28.19   -4.37     .03457    -3.12  RIGHT     1.54197E-01    -6.15    9.95788E-03  -153.68
   40.00    60.00      -1.46  -26.06   -1.44     .02825    -2.96  RIGHT     2.16095E-01    -2.44    1.27252E-02  -153.69
   50.00    60.00        .87  -25.04     .88     .02157    -2.62  RIGHT     2.82571E-01     1.04    1.43094E-02  -153.70
   60.00    60.00       2.69  -25.25    2.70     .01526    -2.12  RIGHT     3.48500E-01     3.90    1.39723E-02  -153.71
   70.00    60.00       4.01  -27.13    4.01     .00963    -1.49  RIGHT     4.05698E-01     5.97    1.12550E-02  -153.71
   80.00    60.00       4.81  -32.16    4.81     .00463     -.77  RIGHT     4.44953E-01     7.21    6.30753E-03  -153.71
   90.00    60.00       5.08 -163.71    5.08     .00000      .00  LINEAR    4.58964E-01     7.62    1.66760E-09   172.94
     .00    90.00    -142.13 -134.22 -133.57     .11379   -68.87  LEFT      2.00102E-08   -75.69    4.97118E-08    85.38
   10.00    90.00     -14.82 -134.46  -14.82     .00000      .00  LINEAR    4.63931E-02   -13.37    4.83716E-08    87.24
   20.00    90.00      -8.55 -134.20   -8.55     .00000      .00  LINEAR    9.55519E-02   -10.81    4.98180E-08    85.06
   30.00    90.00      -4.63 -133.81   -4.63     .00000      .00  LINEAR    1.50010E-01    -7.17    5.21315E-08    86.21
   40.00    90.00      -1.66 -133.45   -1.66     .00000      .00  LINEAR    2.11160E-01    -3.17    5.43397E-08    87.08
   50.00    90.00        .72 -134.11     .72     .00000      .00  LINEAR    2.77755E-01      .57    5.03796E-08    80.74
   60.00    90.00       2.60 -135.46    2.60     .00000      .00  LINEAR    3.44753E-01     3.64    4.31289E-08    80.39
   70.00    90.00       3.97 -137.37    3.97     .00000      .00  LINEAR    4.03602E-01     5.87    3.46152E-08    76.72
   80.00    90.00       4.80 -143.90    4.80     .00000      .00  LINEAR    4.44352E-01     7.19    1.63203E-08    78.70
   90.00    90.00       5.08 -162.46    5.08     .00000      .00  LINEAR    4.58965E-01     7.63    1.92597E-09   162.97


   AVERAGE POWER GAIN= 1.80189E+00       SOLID ANGLE USED IN AVERAGING=(  .5000)*PI STERADIANS.

   POWER RADIATED ASSUMING RADIATION INTO 4*PI STERADIANS = 1.96399E-03 WATTS






 ***** INPUT LINE  4  NX   0    0    0    0  0.00000E+00  0.00000E+00  0.00000E+00  0.00000E+00  0.00000E+00  0.00000E+00
1



                                ***********************************************
                                *                                             *
                                *  NUMERICAL ELECTROMAGNETICS CODE (NEC-4.1)  *
                                *                                             *
                                ***********************************************




                      **********************************************************

                          12 ELEMENT LOG PERIODIC ANTENNA IN FREE SPACE.                               
                            78 SEGMENTS.     SIGMA=D/L       RECEIVING AND TRANS. PATTERNS.            
                          DIPOLE LENGTH TO DIAMETER RATIO=150.                                         
                          TAU=0.93,    SIGMA=0.70,     BOOM IMPEDANCE=50. OHMS.                        

                      **********************************************************





                                 - - - STRUCTURE SPECIFICATION - - -

                                     COORDINATES MUST BE INPUT IN
                                     METERS OR BE SCALED TO METERS
                                     BEFORE STRUCTURE INPUT IS ENDED


  WIRE                                                                               NO. OF    FIRST  LAST     TAG
  NO.        X1         Y1         Z1          X2         Y2         Z2      RADIUS   SEG.     SEG.   SEG.     NO.
     1     .00000   -1.00000     .00000      .00000    1.00000     .00000     .00667      5        1     5       1
     2    -.75270   -1.07530     .00000     -.75270    1.07530     .00000     .00717      5        6    10       2
     3   -1.56200   -1.15620     .00000    -1.56200    1.15620     .00000     .00771      5       11    15       3
     4   -2.43230   -1.24320     .00000    -2.43230    1.24320     .00000     .00829      5       16    20       4
     5   -3.36800   -1.33680     .00000    -3.36800    1.33680     .00000     .00891      5       21    25       5
     6   -4.37420   -1.43740     .00000    -4.37420    1.43740     .00000     .00958      7       26    32       6
     7   -5.45620   -1.54560     .00000    -5.45620    1.54560     .00000     .01030      7       33    39       7
     8   -6.61950   -1.66190     .00000    -6.61950    1.66190     .00000     .01108      7       40    46       8
     9   -7.87050   -1.78700     .00000    -7.87050    1.78700     .00000     .01191      7       47    53       9
    10   -9.21560   -1.92150     .00000    -9.21560    1.92150     .00000     .01281      7       54    60      10
    11  -10.66190   -2.06620     .00000   -10.66190    2.06620     .00000     .01377      9       61    69      11
    12  -12.21710   -2.22170     .00000   -12.21710    2.22170     .00000     .01481      9       70    78      12

   TOTAL SEGMENTS USED=   78     NO. SEG. IN A SYMMETRIC CELL=   78     SYMMETRY FLAG=  0


         - MULTIPLE WIRE JUNCTIONS -
 JUNCTION    SEGMENTS  (- FOR END 1, + FOR END 2)
  NONE




                                 - - - - SEGMENTATION DATA - - - -

                                        COORDINATES IN METERS

                         I+ AND I- INDICATE THE SEGMENTS BEFORE AND AFTER I


  SEG.   COORDINATES OF SEG. CENTER     SEG.     ORIENTATION ANGLES    WIRE    CONNECTION DATA   TAG
  NO.       X         Y         Z       LENGTH     ALPHA     BETA      RADIUS    I-   I    I+    NO.
     1    .00000   -.80000    .00000    .40000     .00000  90.00000    .00667     0    1    2      1
     2    .00000   -.40000    .00000    .40000     .00000  90.00000    .00667     1    2    3      1
     3    .00000    .00000    .00000    .40000     .00000  90.00000    .00667     2    3    4      1
     4    .00000    .40000    .00000    .40000     .00000  90.00000    .00667     3    4    5      1
     5    .00000    .80000    .00000    .40000     .00000  90.00000    .00667     4    5    0      1
     6   -.75270   -.86024    .00000    .43012     .00000  90.00000    .00717     0    6    7      2
     7   -.75270   -.43012    .00000    .43012     .00000  90.00000    .00717     6    7    8      2
     8   -.75270    .00000    .00000    .43012     .00000  90.00000    .00717     7    8    9      2
     9   -.75270    .43012    .00000    .43012     .00000  90.00000    .00717     8    9   10      2
    10   -.75270    .86024    .00000    .43012     .00000  90.00000    .00717     9   10    0      2
    11  -1.56200   -.92496    .00000    .46248     .00000  90.00000    .00771     0   11   12      3
    12  -1.56200   -.46248    .00000    .46248     .00000  90.00000    .00771    11   12   13      3
    13  -1.56200    .00000    .00000    .46248     .00000  90.00000    .00771    12   13   14      3
    14  -1.56200    .46248    .00000    .46248     .00000  90.00000    .00771    13   14   15      3
    15  -1.56200    .92496    .00000    .46248     .00000  90.00000    .00771    14   15    0      3
    16  -2.43230   -.99456    .00000    .49728     .00000  90.00000    .00829     0   16   17      4
    17  -2.43230   -.49728    .00000    .49728     .00000  90.00000    .00829    16   17   18      4
    18  -2.43230    .00000    .00000    .49728     .00000  90.00000    .00829    17   18   19      4
    19  -2.43230    .49728    .00000    .49728     .00000  90.00000    .00829    18   19   20      4
    20  -2.43230    .99456    .00000    .49728     .00000  90.00000    .00829    19   20    0      4
    21  -3.36800  -1.06944    .00000    .53472     .00000  90.00000    .00891     0   21   22      5
    22  -3.36800   -.53472    .00000    .53472     .00000  90.00000    .00891    21   22   23      5
    23  -3.36800    .00000    .00000    .53472     .00000  90.00000    .00891    22   23   24      5
    24  -3.36800    .53472    .00000    .53472     .00000  90.00000    .00891    23   24   25      5
    25  -3.36800   1.06944    .00000    .53472     .00000  90.00000    .00891    24   25    0      5
    26  -4.37420  -1.23206    .00000    .41069     .00000  90.00000    .00958     0   26   27      6
    27  -4.37420   -.82137    .00000    .41069     .00000  90.00000    .00958    26   27   28      6
    28  -4.37420   -.41069    .00000    .41069     .00000  90.00000    .00958    27   28   29      6
    29  -4.37420    .00000    .00000    .41069     .00000  90.00000    .00958    28   29   30      6
    30  -4.37420    .41069    .00000    .41069     .00000  90.00000    .00958    29   30   31      6
    31  -4.37420    .82137    .00000    .41069     .00000  90.00000    .00958    30   31   32      6
    32  -4.37420   1.23206    .00000    .41069     .00000  90.00000    .00958    31   32    0      6
    33  -5.45620  -1.32480    .00000    .44160     .00000  90.00000    .01030     0   33   34      7
    34  -5.45620   -.88320    .00000    .44160     .00000  90.00000    .01030    33   34   35      7
    35  -5.45620   -.44160    .00000    .44160     .00000  90.00000    .01030    34   35   36      7
    36  -5.45620    .00000    .00000    .44160     .00000  90.00000    .01030    35   36   37      7
    37  -5.45620    .44160    .00000    .44160     .00000  90.00000    .01030    36   37   38      7
    38  -5.45620    .88320    .00000    .44160     .00000  90.00000    .01030    37   38   39      7
    39  -5.45620   1.32480    .00000    .44160     .00000  90.00000    .01030    38   39    0      7
    40  -6.61950  -1.42449    .00000    .47483     .00000  90.00000    .01108     0   40   41      8
    41  -6.61950   -.94966    .00000    .47483     .00000  90.00000    .01108    40   41   42      8
    42  -6.61950   -.47483    .00000    .47483     .00000  90.00000    .01108    41   42   43      8
    43  -6.61950    .00000    .00000    .47483     .00000  90.00000    .01108    42   43   44      8
    44  -6.61950    .47483    .00000    .47483     .00000  90.00000    .01108    43   44   45      8
    45  -6.61950    .94966    .00000    .47483     .00000  90.00000    .01108    44   45   46      8
    46  -6.61950   1.42449    .00000    .47483     .00000  90.00000    .01108    45   46    0      8
    47  -7.87050  -1.53171    .00000    .51057     .00000  90.00000    .01191     0   47   48      9
    48  -7.87050  -1.02114    .00000    .51057     .00000  90.00000    .01191    47   48   49      9
    49  -7.87050   -.51057    .00000    .51057     .00000  90.00000    .01191    48   49   50      9
    50  -7.87050    .00000    .00000    .51057     .00000  90.00000    .01191    49   50   51      9
    51  -7.87050    .51057    .00000    .51057     .00000  90.00000    .01191    50   51   52      9
    52  -7.87050   1.02114    .00000    .51057     .00000  90.00000    .01191    51   52   53      9
    53  -7.87050   1.53171    .00000    .51057     .00000  90.00000    .01191    52   53    0      9
    54  -9.21560  -1.64700    .00000    .54900     .00000  90.00000    .01281     0   54   55     10
    55  -9.21560  -1.09800    .00000    .54900     .00000  90.00000    .01281    54   55   56     10
    56  -9.21560   -.54900    .00000    .54900     .00000  90.00000    .01281    55   56   57     10
    57  -9.21560    .00000    .00000    .54900     .00000  90.00000    .01281    56   57   58     10
    58  -9.21560    .54900    .00000    .54900     .00000  90.00000    .01281    57   58   59     10
    59  -9.21560   1.09800    .00000    .54900     .00000  90.00000    .01281    58   59   60     10
    60  -9.21560   1.64700    .00000    .54900     .00000  90.00000    .01281    59   60    0     10
    61 -10.66190  -1.83662    .00000    .45916     .00000  90.00000    .01377     0   61   62     11
    62 -10.66190  -1.37747    .00000    .45916     .00000  90.00000    .01377    61   62   63     11
    63 -10.66190   -.91831    .00000    .45916     .00000  90.00000    .01377    62   63   64     11
    64 -10.66190   -.45916    .00000    .45916     .00000  90.00000    .01377    63   64   65     11
    65 -10.66190    .00000    .00000    .45916     .00000  90.00000    .01377    64   65   66     11
    66 -10.66190    .45916    .00000    .45916     .00000  90.00000    .01377    65   66   67     11
    67 -10.66190    .91831    .00000    .45916     .00000  90.00000    .01377    66   67   68     11
    68 -10.66190   1.37747    .00000    .45916     .00000  90.00000    .01377    67   68   69     11
    69 -10.66190   1.83662    .00000    .45916     .00000  90.00000    .01377    68   69    0     11
    70 -12.21710  -1.97484    .00000    .49371     .00000  90.00000    .01481     0   70   71     12
    71 -12.21710  -1.48113    .00000    .49371     .00000  90.00000    .01481    70   71   72     12
    72 -12.21710   -.98742    .00000    .49371     .00000  90.00000    .01481    71   72   73     12
    73 -12.21710   -.49371    .00000    .49371     .00000  90.00000    .01481    72   73   74     12
    74 -12.21710    .00000    .00000    .49371     .00000  90.00000    .01481    73   74   75     12
    75 -12.21710    .49371    .00000    .49371     .00000  90.00000    .01481    74   75   76     12
    76 -12.21710    .98742    .00000    .49371     .00000  90.00000    .01481    75   76   77     12
    77 -12.21710   1.48113    .00000    .49371     .00000  90.00000    .01481    76   77   78     12
    78 -12.21710   1.97484    .00000    .49371     .00000  90.00000    .01481    77   78    0     12




 ***** INPUT LINE  1  FR   0    0    0    0  4.62900E+01  0.00000E+00  0.00000E+00  0.00000E+00  0.00000E+00  0.00000E+00
 ***** INPUT LINE  2  TL   1    3    2    3 -5.00000E+01  0.00000E+00  0.00000E+00  0.00000E+00  0.00000E+00  0.00000E+00
 ***** INPUT LINE  3  TL   2    3    3    3 -5.00000E+01  0.00000E+00  0.00000E+00  0.00000E+00  0.00000E+00  0.00000E+00
 ***** INPUT LINE  4  TL   3    3    4    3 -5.00000E+01  0.00000E+00  0.00000E+00  0.00000E+00  0.00000E+00  0.00000E+00
 ***** INPUT LINE  5  TL   4    3    5    3 -5.00000E+01  0.00000E+00  0.00000E+00  0.00000E+00  0.00000E+00  0.00000E+00
 ***** INPUT LINE  6  TL   5    3    6    4 -5.00000E+01  0.00000E+00  0.00000E+00  0.00000E+00  0.00000E+00  0.00000E+00
 ***** INPUT LINE  7  TL   6    4    7    4 -5.00000E+01  0.00000E+00  0.00000E+00  0.00000E+00  0.00000E+00  0.00000E+00
 ***** INPUT LINE  8  TL   7    4    8    4 -5.00000E+01  0.00000E+00  0.00000E+00  0.00000E+00  0.00000E+00  0.00000E+00
 ***** INPUT LINE  9  TL   8    4    9    4 -5.00000E+01  0.00000E+00  0.00000E+00  0.00000E+00  0.00000E+00  0.00000E+00
 ***** INPUT LINE 10  TL   9    4   10    4 -5.00000E+01  0.00000E+00  0.00000E+00  0.00000E+00  0.00000E+00  0.00000E+00
 ***** INPUT LINE 11  TL  10    4   11    5 -5.00000E+01  0.00000E+00  0.00000E+00  0.00000E+00  0.00000E+00  0.00000E+00
 ***** INPUT LINE 12  TL  11    5   12    5 -5.00000E+01  0.00000E+00  0.00000E+00  0.00000E+00  2.00000E-02  0.00000E+00
 ***** INPUT LINE 13  EX   0    1    3   10  1.00000E+00  0.00000E+00  0.00000E+00  0.00000E+00  0.00000E+00  0.00000E+00
 ***** INPUT LINE 14  RP   0   37    1 1110  9.00000E+01  0.00000E+00 -5.00000E+00  0.00000E+00  0.00000E+00  0.00000E+00




                                 - - - - - - FREQUENCY - - - - - -

                                    FREQUENCY= 4.6290E+01 MHZ
                                    WAVELENGTH= 6.4766E+00 METERS



[...]
    72  -1.40000  -2.42487   -.05000    .80000     .00000  60.00000    .01000    71   72   73      1
    73  -1.00000  -1.73205   -.05000    .80000     .00000  60.00002    .01000    72   73   74      1
    74   -.60000  -1.03923   -.05000    .80000     .00000  60.00002    .01000    73   74   75      1
    75   -.20000   -.34641   -.02500    .80156    3.57633  60.00002    .01000    74   75  -90      1
    76   5.80000 -10.04589   -.05000    .80000     .00000 120.00001    .01000     0   76   77      1
    77   5.40000  -9.35307   -.05000    .80000     .00000 120.00003    .01000    76   77   78      1
    78   5.00000  -8.66025   -.05000    .80000     .00000 120.00003    .01000    77   78   79      1
    79   4.60000  -7.96743   -.05000    .80000     .00000 120.00003    .01000    78   79   80      1
    80   4.20000  -7.27461   -.05000    .80000     .00000 119.99998    .01000    79   80   81      1
    81   3.80000  -6.58179   -.05000    .80000     .00000 120.00003    .01000    80   81   82      1
    82   3.40000  -5.88897   -.05000    .80000     .00000 120.00003    .01000    81   82   83      1
    83   3.00000  -5.19615   -.05000    .80000     .00000 119.99999    .01000    82   83   84      1
    84   2.60000  -4.50333   -.05000    .80000     .00000 120.00003    .01000    83   84   85      1
    85   2.20000  -3.81051   -.05000    .80000     .00000 120.00001    .01000    84   85   86      1
    86   1.80000  -3.11769   -.05000    .80000     .00000 120.00002    .01000    85   86   87      1
    87   1.40000  -2.42487   -.05000    .80000     .00000 120.00001    .01000    86   87   88      1
    88   1.00000  -1.73205   -.05000    .80000     .00000 120.00005    .01000    87   88   89      1
    89    .60000  -1.03923   -.05000    .80000     .00000 120.00002    .01000    88   89   90      1
    90    .20000   -.34641   -.02500    .80156    3.57633 120.00002    .01000    89   90   91      1
    91    .00000    .00000    .75000   1.50000   90.00000 100.17654    .01000    15   91   92      2
    92    .00000    .00000   2.25000   1.50000   90.00000    .00000    .01000    91   92   93      2
    93    .00000    .00000   3.75000   1.50000   90.00000    .00000    .01000    92   93   94      2
    94    .00000    .00000   5.25000   1.50000   90.00000    .00000    .01000    93   94   95      2
    95    .00000    .00000   6.75000   1.50000   90.00000    .00000    .01000    94   95   96      2
    96    .00000    .00000   8.25000   1.50000   90.00000    .00000    .01000    95   96   97      2
    97    .00000    .00000   9.75000   1.50000   90.00000    .00000    .01000    96   97   98      2
    98    .00000    .00000  11.25000   1.50000   90.00000    .00000    .01000    97   98   99      2
    99    .00000    .00000  12.75000   1.50000   90.00000    .00000    .01000    98   99  100      2
   100    .00000    .00000  14.25000   1.50000   90.00000    .00000    .01000    99  100    0      2


 N.G.F. - NUMBER OF NEW UNKNOWNS IS  16




 ***** INPUT LINE  1  EX   0    2    1    0  1.00000E+00  0.00000E+00  0.00000E+00  0.00000E+00  0.00000E+00  0.00000E+00
 ***** INPUT LINE  2  RP   0   19    2 1001  0.00000E+00  0.00000E+00  5.00000E+00  9.00000E+01  0.00000E+00  0.00000E+00




                                 - - - - - - FREQUENCY - - - - - -

                                    FREQUENCY= 5.0000E+00 MHZ
                                    WAVELENGTH= 5.9960E+01 METERS



                                  - - - ANTENNA ENVIRONMENT - - -

                                        FINITE GROUND.  SOMMERFELD SOLUTION
                                        RELATIVE DIELECTRIC CONST.= 10.000
                                        CONDUCTIVITY= 1.000E-02 MHOS/METER
                                        COMPLEX DIELECTRIC CONSTANT= 1.00000E+01-3.59510E+01



                               - - - STRUCTURE IMPEDANCE LOADING - - -

                                   THIS STRUCTURE IS NOT LOADED



                                - - - MATRIX TIMING - - -

                        FILL=    5.260 SEC.,  FACTOR=     .180 SEC.



                                          - - - ANTENNA INPUT PARAMETERS - - -

   TAG   SEG.    VOLTAGE (VOLTS)         CURRENT (AMPS)         IMPEDANCE (OHMS)        ADMITTANCE (MHOS)      POWER
   NO.   NO.    REAL        IMAG.       REAL        IMAG.       REAL        IMAG.       REAL        IMAG.     (WATTS)
     2    91 1.00000E+00 0.00000E+00 1.42846E-02-7.78769E-03 5.39656E+01 2.94209E+01 1.42846E-02-7.78769E-03 7.14232E-03



                             - - - CURRENTS AND LOCATION - - -

                     LENGTHS NORMALIZED BY WAVELENGTH (OR 2.*PI/CABS(K))

  SEG.  TAG    COORD. OF SEG. CENTER     SEG.            - - - CURRENT (AMPS) - - -
  NO.   NO.     X        Y        Z      LENGTH     REAL        IMAG.       MAG.        PHASE
     1    1   1.1818    .0000   -.0051   .08150   3.6076E-05 -1.1057E-04  1.1631E-04  -71.930
     2    1   1.1003    .0000   -.0051   .08150   5.0396E-05 -2.7345E-04  2.7806E-04  -79.558
     3    1   1.0188    .0000   -.0051   .08150   2.8497E-05 -4.0279E-04  4.0379E-04  -85.953
     4    1    .9373    .0000   -.0051   .08150  -6.5444E-06 -5.1470E-04  5.1474E-04  -90.728
     5    1    .8558    .0000   -.0051   .08150  -3.9153E-05 -6.2064E-04  6.2188E-04  -93.610
     6    1    .7743    .0000   -.0051   .08150  -5.6324E-05 -7.3121E-04  7.3338E-04  -94.405
     7    1    .6928    .0000   -.0051   .08150  -4.5531E-05 -8.5499E-04  8.5620E-04  -93.048
     8    1    .6113    .0000   -.0051   .08150   6.4908E-06 -9.9672E-04  9.9674E-04  -89.627
     9    1    .5298    .0000   -.0051   .08150   1.1413E-04 -1.1554E-03  1.1610E-03  -84.359
    10    1    .4483    .0000   -.0051   .08150   2.9220E-04 -1.3222E-03  1.3541E-03  -77.539
    11    1    .3668    .0000   -.0051   .08150   5.5377E-04 -1.4790E-03  1.5793E-03  -69.473
    12    1    .2853    .0000   -.0051   .08150   9.0588E-04 -1.5969E-03  1.8360E-03  -60.436
    13    1    .2038    .0000   -.0051   .08150   1.3424E-03 -1.6385E-03  2.1182E-03  -50.674
    14    1    .1223    .0000   -.0051   .08150   1.8333E-03 -1.5642E-03  2.4099E-03  -40.470
    15    1    .0408    .0000   -.0025   .08166   2.2800E-03 -1.3732E-03  2.6616E-03  -31.059
    16    1    .5909   1.0235   -.0051   .08150   3.6076E-05 -1.1057E-04  1.1631E-04  -71.930
    17    1    .5501    .9529   -.0051   .08150   5.0396E-05 -2.7345E-04  2.7806E-04  -79.558
    18    1    .5094    .8823   -.0051   .08150   2.8497E-05 -4.0279E-04  4.0379E-04  -85.953
    19    1    .4686    .8117   -.0051   .08150  -6.5447E-06 -5.1470E-04  5.1474E-04  -90.729
    20    1    .4279    .7411   -.0051   .08150  -3.9153E-05 -6.2065E-04  6.2188E-04  -93.610
    21    1    .3871    .6705   -.0051   .08150  -5.6325E-05 -7.3121E-04  7.3338E-04  -94.405
    22    1    .3464    .6000   -.0051   .08150  -4.5531E-05 -8.5499E-04  8.5620E-04  -93.048
    23    1    .3056    .5294   -.0051   .08150   6.4904E-06 -9.9672E-04  9.9674E-04  -89.627
    24    1    .2649    .4588   -.0051   .08150   1.1413E-04 -1.1554E-03  1.1610E-03  -84.359
    25    1    .2241    .3882   -.0051   .08150   2.9220E-04 -1.3222E-03  1.3541E-03  -77.539
    26    1    .1834    .3176   -.0051   .08150   5.5377E-04 -1.4790E-03  1.5793E-03  -69.473
    27    1    .1426    .2470   -.0051   .08150   9.0588E-04 -1.5969E-03  1.8360E-03  -60.436
    28    1    .1019    .1765   -.0051   .08150   1.3424E-03 -1.6385E-03  2.1182E-03  -50.674
    29    1    .0611    .1059   -.0051   .08150   1.8334E-03 -1.5642E-03  2.4099E-03  -40.470
    30    1    .0204    .0353   -.0025   .08166   2.2800E-03 -1.3732E-03  2.6616E-03  -31.059
    31    1   -.5909   1.0235   -.0051   .08150   3.6076E-05 -1.1057E-04  1.1631E-04  -71.930
    32    1   -.5501    .9529   -.0051   .08150   5.0396E-05 -2.7345E-04  2.7806E-04  -79.558
    33    1   -.5094    .8823   -.0051   .08150   2.8497E-05 -4.0279E-04  4.0379E-04  -85.953
    34    1   -.4686    .8117   -.0051   .08150  -6.5445E-06 -5.1470E-04  5.1474E-04  -90.728
    35    1   -.4279    .7411   -.0051   .08150  -3.9153E-05 -6.2064E-04  6.2188E-04  -93.610
    36    1   -.3871    .6705   -.0051   .08150  -5.6325E-05 -7.3121E-04  7.3338E-04  -94.405
    37    1   -.3464    .6000   -.0051   .08150  -4.5532E-05 -8.5499E-04  8.5620E-04  -93.048
    38    1   -.3056    .5294   -.0051   .08150   6.4895E-06 -9.9672E-04  9.9674E-04  -89.627
    39    1   -.2649    .4588   -.0051   .08150   1.1412E-04 -1.1554E-03  1.1610E-03  -84.359
    40    1   -.2241    .3882   -.0051   .08150   2.9220E-04 -1.3222E-03  1.3541E-03  -77.539
    41    1   -.1834    .3176   -.0051   .08150   5.5376E-04 -1.4790E-03  1.5793E-03  -69.473
    42    1   -.1426    .2470   -.0051   .08150   9.0588E-04 -1.5969E-03  1.8360E-03  -60.436
    43    1   -.1019    .1765   -.0051   .08150   1.3424E-03 -1.6385E-03  2.1182E-03  -50.674
    44    1   -.0611    .1059   -.0051   .08150   1.8334E-03 -1.5642E-03  2.4100E-03  -40.470
    45    1   -.0204    .0353   -.0025   .08166   2.2800E-03 -1.3732E-03  2.6616E-03  -31.059
    46    1  -1.1818    .0000   -.0051   .08150   3.6076E-05 -1.1057E-04  1.1631E-04  -71.930
    47    1  -1.1003    .0000   -.0051   .08150   5.0396E-05 -2.7345E-04  2.7806E-04  -79.558
    48    1  -1.0188    .0000   -.0051   .08150   2.8497E-05 -4.0279E-04  4.0379E-04  -85.953
    49    1   -.9373    .0000   -.0051   .08150  -6.5445E-06 -5.1470E-04  5.1474E-04  -90.728
    50    1   -.8558    .0000   -.0051   .08150  -3.9153E-05 -6.2065E-04  6.2188E-04  -93.610
    51    1   -.7743    .0000   -.0051   .08150  -5.6324E-05 -7.3121E-04  7.3338E-04  -94.405
    52    1   -.6928    .0000   -.0051   .08150  -4.5531E-05 -8.5499E-04  8.5620E-04  -93.048
    53    1   -.6113    .0000   -.0051   .08150   6.4907E-06 -9.9672E-04  9.9674E-04  -89.627
    54    1   -.5298    .0000   -.0051   .08150   1.1413E-04 -1.1554E-03  1.1610E-03  -84.359
    55    1   -.4483    .0000   -.0051   .08150   2.9220E-04 -1.3222E-03  1.3541E-03  -77.539
    56    1   -.3668    .0000   -.0051   .08150   5.5377E-04 -1.4790E-03  1.5793E-03  -69.473
    57    1   -.2853    .0000   -.0051   .08150   9.0588E-04 -1.5969E-03  1.8360E-03  -60.436
    58    1   -.2038    .0000   -.0051   .08150   1.3424E-03 -1.6385E-03  2.1182E-03  -50.674
    59    1   -.1223    .0000   -.0051   .08150   1.8333E-03 -1.5642E-03  2.4099E-03  -40.470
    60    1   -.0408    .0000   -.0025   .08166   2.2800E-03 -1.3732E-03  2.6616E-03  -31.059
    61    1   -.5909  -1.0235   -.0051   .08150   3.6076E-05 -1.1057E-04  1.1631E-04  -71.930
    62    1   -.5501   -.9529   -.0051   .08150   5.0396E-05 -2.7345E-04  2.7806E-04  -79.558
    63    1   -.5094   -.8823   -.0051   .08150   2.8497E-05 -4.0279E-04  4.0379E-04  -85.953
    64    1   -.4686   -.8117   -.0051   .08150  -6.5444E-06 -5.1470E-04  5.1474E-04  -90.728
    65    1   -.4279   -.7411   -.0051   .08150  -3.9153E-05 -6.2064E-04  6.2188E-04  -93.610
    66    1   -.3871   -.6705   -.0051   .08150  -5.6326E-05 -7.3121E-04  7.3338E-04  -94.405
    67    1   -.3464   -.6000   -.0051   .08150  -4.5532E-05 -8.5499E-04  8.5620E-04  -93.048
    68    1   -.3056   -.5294   -.0051   .08150   6.4898E-06 -9.9672E-04  9.9674E-04  -89.627
    69    1   -.2649   -.4588   -.0051   .08150   1.1413E-04 -1.1554E-03  1.1610E-03  -84.359
    70    1   -.2241   -.3882   -.0051   .08150   2.9220E-04 -1.3222E-03  1.3541E-03  -77.539
    71    1   -.1834   -.3176   -.0051   .08150   5.5376E-04 -1.4790E-03  1.5793E-03  -69.473
    72    1   -.1426   -.2470   -.0051   .08150   9.0588E-04 -1.5969E-03  1.8360E-03  -60.436
    73    1   -.1019   -.1765   -.0051   .08150   1.3424E-03 -1.6385E-03  2.1182E-03  -50.674
    74    1   -.0611   -.1059   -.0051   .08150   1.8333E-03 -1.5642E-03  2.4100E-03  -40.470
    75    1   -.0204   -.0353   -.0025   .08166   2.2800E-03 -1.3732E-03  2.6616E-03  -31.059
    76    1    .5909  -1.0235   -.0051   .08150   3.6076E-05 -1.1057E-04  1.1631E-04  -71.930
    77    1    .5501   -.9529   -.0051   .08150   5.0396E-05 -2.7345E-04  2.7806E-04  -79.558
    78    1    .5094   -.8823   -.0051   .08150   2.8497E-05 -4.0279E-04  4.0379E-04  -85.953
    79    1    .4686   -.8117   -.0051   .08150  -6.5445E-06 -5.1470E-04  5.1474E-04  -90.728
    80    1    .4279   -.7411   -.0051   .08150  -3.9153E-05 -6.2064E-04  6.2188E-04  -93.610
    81    1    .3871   -.6705   -.0051   .08150  -5.6325E-05 -7.3121E-04  7.3338E-04  -94.405
    82    1    .3464   -.6000   -.0051   .08150  -4.5532E-05 -8.5499E-04  8.5620E-04  -93.048
    83    1    .3056   -.5294   -.0051   .08150   6.4896E-06 -9.9672E-04  9.9674E-04  -89.627
    84    1    .2649   -.4588   -.0051   .08150   1.1412E-04 -1.1554E-03  1.1610E-03  -84.359
    85    1    .2241   -.3882   -.0051   .08150   2.9220E-04 -1.3222E-03  1.3541E-03  -77.539
    86    1    .1834   -.3176   -.0051   .08150   5.5376E-04 -1.4790E-03  1.5793E-03  -69.473
    87    1    .1426   -.2470   -.0051   .08150   9.0588E-04 -1.5969E-03  1.8360E-03  -60.436
    88    1    .1019   -.1765   -.0051   .08150   1.3424E-03 -1.6385E-03  2.1182E-03  -50.674
    89    1    .0611   -.1059   -.0051   .08150   1.8334E-03 -1.5642E-03  2.4100E-03  -40.470
    90    1    .0204   -.0353   -.0025   .08166   2.2800E-03 -1.3732E-03  2.6616E-03  -31.059
    91    2    .0000    .0000    .0125   .02502   1.4285E-02 -7.7877E-03  1.6270E-02  -28.598
    92    2    .0000    .0000    .0375   .02502   1.3937E-02 -7.9289E-03  1.6034E-02  -29.637
    93    2    .0000    .0000    .0625   .02502   1.3266E-02 -7.8306E-03  1.5405E-02  -30.552
    94    2    .0000    .0000    .0876   .02502   1.2292E-02 -7.4686E-03  1.4383E-02  -31.284
    95    2    .0000    .0000    .1126   .02502   1.1034E-02 -6.8682E-03  1.2997E-02  -31.901
    96    2    .0000    .0000    .1376   .02502   9.5187E-03 -6.0495E-03  1.1278E-02  -32.437
    97    2    .0000    .0000    .1626   .02502   7.7748E-03 -5.0324E-03  9.2613E-03  -32.914
    98    2    .0000    .0000    .1876   .02502   5.8311E-03 -3.8370E-03  6.9803E-03  -33.346
    99    2    .0000    .0000    .2126   .02502   3.7095E-03 -2.4780E-03  4.4611E-03  -33.744
   100    2    .0000    .0000    .2377   .02502   1.3643E-03 -9.2409E-04  1.6478E-03  -34.111



                                        - - - POWER BUDGET - - -

                                           INPUT POWER   = 7.1423E-03 WATTS
                                           RADIATED POWER= 7.1423E-03 WATTS
                                           WIRE LOSS     = 0.0000E+00 WATTS
                                           EFFICIENCY    = 100.00 PERCENT



                                                - - - RADIATION PATTERNS - - -

  - - ANGLES - -          - POWER GAINS -        - - - POLARIZATION - - -    - - - E(THETA) - - -    - - - E(PHI) - - -
  THETA     PHI        VERT.   HOR.    TOTAL      AXIAL     TILT   SENSE     MAGNITUDE    PHASE      MAGNITUDE    PHASE 
 DEGREES  DEGREES       DB      DB      DB        RATIO     DEG.               VOLTS     DEGREES       VOLTS     DEGREES
     .00      .00    -154.93 -153.40 -151.09     .03880    50.02  RIGHT     1.17336E-08   147.29    1.39877E-08   142.77
    5.00      .00     -21.08 -153.32  -21.08     .00000      .00  LINEAR    5.77876E-02    60.79    1.41134E-08   144.85
   10.00      .00     -15.05 -153.42  -15.05     .00000      .00  LINEAR    1.15672E-01    60.70    1.39590E-08   134.92
   15.00      .00     -11.52 -155.97  -11.52     .00000      .00  LINEAR    1.73698E-01    60.56    1.04097E-08   158.35
   20.00      .00      -9.01 -155.40   -9.01     .00000      .00  LINEAR    2.31808E-01    60.36    1.11182E-08   130.42
   25.00      .00      -7.08 -155.66   -7.08     .00000      .00  LINEAR    2.89789E-01    60.11    1.07832E-08   147.48
   30.00      .00      -5.50 -155.33   -5.50     .00000      .00  LINEAR    3.47229E-01    59.79    1.12095E-08   132.26
   35.00      .00      -4.20 -155.32   -4.20     .00000      .00  LINEAR    4.03467E-01    59.41    1.12141E-08   133.62
   40.00      .00      -3.11 -157.79   -3.11     .00000      .00  LINEAR    4.57553E-01    58.95    8.44353E-09   155.84
   45.00      .00      -2.20 -157.66   -2.20     .00000      .00  LINEAR    5.08199E-01    58.41    8.56284E-09   140.95
   50.00      .00      -1.45 -157.12   -1.45     .00000      .00  LINEAR    5.53725E-01    57.76    9.11611E-09   152.72
   55.00      .00       -.87 -158.64    -.87     .00000      .00  LINEAR    5.91968E-01    56.96    7.65399E-09   153.62
   60.00      .00       -.47 -161.31    -.47     .00000      .00  LINEAR    6.20125E-01    55.97    5.62733E-09   149.46
   65.00      .00       -.27 -161.17    -.27     .00000      .00  LINEAR    6.34409E-01    54.69    5.72143E-09   147.74
   70.00      .00       -.34 -165.59    -.34     .00000      .00  LINEAR    6.29306E-01    52.97    3.43861E-09   153.84
   75.00      .00       -.81 -165.58    -.81     .00000      .00  LINEAR    5.95800E-01    50.54    3.44093E-09   157.86
   80.00      .00      -2.05 -169.35   -2.05     .00000      .00  LINEAR    5.16753E-01    46.82    2.23053E-09   146.53
   85.00      .00      -5.35 -174.07   -5.35     .00000      .00  LINEAR    3.53274E-01    40.50    1.29457E-09   173.49
   90.00      .00    -128.26 -999.99 -128.26     .00000      .00  LINEAR    2.52768E-07  -157.26    4.76642E-16   144.35
     .00    90.00    -153.40 -154.93 -151.09     .03880   -39.98  RIGHT     1.39877E-08   142.77    1.17336E-08   -32.71
    5.00    90.00     -21.08 -155.30  -21.08     .00000      .00  LINEAR    5.77876E-02    60.79    1.12466E-08   -32.91
   10.00    90.00     -15.05 -155.00  -15.05     .00000      .00  LINEAR    1.15672E-01    60.70    1.16385E-08   -20.72
   15.00    90.00     -11.52 -155.90  -11.52     .00000      .00  LINEAR    1.73698E-01    60.56    1.04946E-08   -30.53
   20.00    90.00      -9.01 -157.16   -9.01     .00000      .00  LINEAR    2.31808E-01    60.36    9.07230E-09   -43.84
   25.00    90.00      -7.08 -157.50   -7.08     .00000      .00  LINEAR    2.89789E-01    60.11    8.72773E-09   -10.61
   30.00    90.00      -5.50 -156.29   -5.50     .00000      .00  LINEAR    3.47229E-01    59.79    1.00338E-08   -22.64
   35.00    90.00      -4.20 -156.92   -4.20     .00000      .00  LINEAR    4.03467E-01    59.41    9.32455E-09   -30.44
   40.00    90.00      -3.11 -159.83   -3.11     .00000      .00  LINEAR    4.57552E-01    58.95    6.67625E-09   -46.30
   45.00    90.00      -2.20 -158.38   -2.20     .00000      .00  LINEAR    5.08198E-01    58.41    7.88195E-09   -17.16
   50.00    90.00      -1.45 -161.50   -1.45     .00000      .00  LINEAR    5.53724E-01    57.76    5.50450E-09   -17.56
   55.00    90.00       -.87 -160.85    -.87     .00000      .00  LINEAR    5.91968E-01    56.96    5.93233E-09   -13.54
   60.00    90.00       -.47 -162.74    -.47     .00000      .00  LINEAR    6.20124E-01    55.97    4.77348E-09    -5.88
   65.00    90.00       -.27 -161.11    -.27     .00000      .00  LINEAR    6.34408E-01    54.69    5.75874E-09   -13.63
   70.00    90.00       -.34 -163.02    -.34     .00000      .00  LINEAR    6.29304E-01    52.97    4.62301E-09   -10.03
   75.00    90.00       -.81 -167.45    -.81     .00000      .00  LINEAR    5.95798E-01    50.54    2.77417E-09    -5.72
   80.00    90.00      -2.05 -173.22   -2.05     .00000      .00  LINEAR    5.16752E-01    46.82    1.42839E-09   -21.30
   85.00    90.00      -5.35 -177.28   -5.35     .00000      .00  LINEAR    3.53273E-01    40.50    8.94632E-10   -11.65
   90.00    90.00    -128.26 -999.99 -128.26     .00000      .00  LINEAR    2.52768E-07  -157.26    4.43123E-16   -11.59


   AVERAGE POWER GAIN= 5.82049E-01       SOLID ANGLE USED IN AVERAGING=(  .5000)*PI STERADIANS.

   POWER RADIATED ASSUMING RADIATION INTO 4*PI STERADIANS = 4.15718E-03 WATTS






 ***** INPUT LINE  3  EN   0    0    0    0  0.00000E+00  0.00000E+00  0.00000E+00  0.00000E+00  0.00000E+00  0.00000E+00

 RUN TIME =    49.140
