1



                                ***********************************************
                                *                                             *
                                *  NUMERICAL ELECTROMAGNETICS CODE (NEC-4.1)  *
                                *                                             *
                                ***********************************************




                      **********************************************************

                         EXAMPLE 1.  CENTER FED LINEAR ANTENNA                                         

                      **********************************************************





                                 - - - STRUCTURE SPECIFICATION - - -

                                     COORDINATES MUST BE INPUT IN
                                     METERS OR BE SCALED TO METERS
                                     BEFORE STRUCTURE INPUT IS ENDED


  WIRE                                                                               NO. OF    FIRST  LAST     TAG
  NO.        X1         Y1         Z1          X2         Y2         Z2      RADIUS   SEG.     SEG.   SEG.     NO.
     1    0.00000    0.00000   -0.25000     0.00000    0.00000    0.25000    0.00100      7        1     7       0

   TOTAL SEGMENTS USED=    7     NO. SEG. IN A SYMMETRIC CELL=    7     SYMMETRY FLAG=  0


         - MULTIPLE WIRE JUNCTIONS -
 JUNCTION    SEGMENTS  (- FOR END 1, + FOR END 2)
  NONE




                                 - - - - SEGMENTATION DATA - - - -

                                        COORDINATES IN METERS

                         I+ AND I- INDICATE THE SEGMENTS BEFORE AND AFTER I


  SEG.   COORDINATES OF SEG. CENTER     SEG.     ORIENTATION ANGLES    WIRE    CONNECTION DATA   TAG
  NO.       X         Y         Z       LENGTH     ALPHA     BETA      RADIUS    I-   I    I+    NO.
     1   0.00000   0.00000  -0.21429   0.07143   90.00000   0.00000   0.00100     0    1    2      0
     2   0.00000   0.00000  -0.14286   0.07143   90.00000   0.00000   0.00100     1    2    3      0
     3   0.00000   0.00000  -0.07143   0.07143   90.00000   0.00000   0.00100     2    3    4      0
     4   0.00000   0.00000   0.00000   0.07143   90.00000   0.00000   0.00100     3    4    5      0
     5   0.00000   0.00000   0.07143   0.07143   90.00000   0.00000   0.00100     4    5    6      0
     6   0.00000   0.00000   0.14286   0.07143   90.00000   0.00000   0.00100     5    6    7      0
     7   0.00000   0.00000   0.21429   0.07143   90.00000   0.00000   0.00100     6    7    0      0




 ***** INPUT LINE  1  EX   0    0    4    0  1.00000E+00  0.00000E+00  0.00000E+00  0.00000E+00  0.00000E+00  0.00000E+00
 ***** INPUT LINE  2  XQ   0    0    0    0  0.00000E+00  0.00000E+00  0.00000E+00  0.00000E+00  0.00000E+00  0.00000E+00




                                 - - - - - - FREQUENCY - - - - - -

                                    FREQUENCY= 2.9980E+02 MHZ
                                    WAVELENGTH= 1.0000E+00 METERS



                                  - - - ANTENNA ENVIRONMENT - - -

                                            FREE SPACE



                               - - - STRUCTURE IMPEDANCE LOADING - - -

                                   THIS STRUCTURE IS NOT LOADED



                                - - - MATRIX TIMING - - -

                        FILL=    0.000 SEC.,  FACTOR=    0.000 SEC.



                                          - - - ANTENNA INPUT PARAMETERS - - -

   TAG   SEG.    VOLTAGE (VOLTS)         CURRENT (AMPS)         IMPEDANCE (OHMS)        ADMITTANCE (MHOS)      POWER
   NO.   NO.    REAL        IMAG.       REAL        IMAG.       REAL        IMAG.       REAL        IMAG.     (WATTS)
     0     4 1.00000E+00 0.00000E+00 9.20578E-03-5.15456E-03 8.26996E+01 4.63057E+01 9.20578E-03-5.15456E-03 4.60289E-03



                             - - - CURRENTS AND LOCATION - - -

                     LENGTHS NORMALIZED BY WAVELENGTH (OR 2.*PI/CABS(K))

  SEG.  TAG    COORD. OF SEG. CENTER     SEG.            - - - CURRENT (AMPS) - - -
  NO.   NO.     X        Y        Z      LENGTH     REAL        IMAG.       MAG.        PHASE
     1    0   0.0000   0.0000  -0.2143  0.07143   2.3592E-03 -1.6880E-03  2.9009E-03  -35.584
     2    0   0.0000   0.0000  -0.1429  0.07143   5.9998E-03 -4.0462E-03  7.2366E-03  -33.995
     3    0   0.0000   0.0000  -0.0714  0.07143   8.3711E-03 -5.1856E-03  9.8471E-03  -31.777
     4    0   0.0000   0.0000   0.0000  0.07143   9.2058E-03 -5.1546E-03  1.0551E-02  -29.246
     5    0   0.0000   0.0000   0.0714  0.07143   8.3711E-03 -5.1856E-03  9.8471E-03  -31.777
     6    0   0.0000   0.0000   0.1429  0.07143   5.9998E-03 -4.0462E-03  7.2366E-03  -33.995
     7    0   0.0000   0.0000   0.2143  0.07143   2.3592E-03 -1.6880E-03  2.9009E-03  -35.584



                                        - - - POWER BUDGET - - -

                                           INPUT POWER   = 4.6029E-03 WATTS
                                           RADIATED POWER= 4.6029E-03 WATTS
                                           WIRE LOSS     = 0.0000E+00 WATTS
                                           EFFICIENCY    = 100.00 PERCENT




 ***** INPUT LINE  3  LD   0    0    4    4  1.00000E+01  3.00000E-09  5.30000E-11  0.00000E+00  0.00000E+00  0.00000E+00
 ***** INPUT LINE  4  PQ   0    0    0    0  0.00000E+00  0.00000E+00  0.00000E+00  0.00000E+00  0.00000E+00  0.00000E+00
 ***** INPUT LINE  5  NE   0    1    1   15  0.00000E+00  0.00000E+00  0.00000E+00  0.00000E+00  0.00000E+00  1.78600E-02




                                 - - - - - - FREQUENCY - - - - - -

                                    FREQUENCY= 2.9980E+02 MHZ
                                    WAVELENGTH= 1.0000E+00 METERS



                                  - - - ANTENNA ENVIRONMENT - - -

                                            FREE SPACE



                               - - - STRUCTURE IMPEDANCE LOADING - - -


       LOCATION          RESISTANCE   INDUCTANCE  CAPACITANCE       IMPEDANCE (OHMS)     CONDUCTIVITY    TYPE
    ITAG FROM THRU          OHMS        HENRYS       FARADS        REAL      IMAGINARY    MHOS/METER

            4    4      1.0000E+01   3.0000E-09   5.3000E-11                                           SERIES 



                                - - - MATRIX TIMING - - -

                        FILL=    0.000 SEC.,  FACTOR=    0.000 SEC.



                                          - - - ANTENNA INPUT PARAMETERS - - -

   TAG   SEG.    VOLTAGE (VOLTS)         CURRENT (AMPS)         IMPEDANCE (OHMS)        ADMITTANCE (MHOS)      POWER
   NO.   NO.    REAL        IMAG.       REAL        IMAG.       REAL        IMAG.       REAL        IMAG.     (WATTS)
     0     4 1.00000E+00 0.00000E+00 8.95457E-03-4.05135E-03 9.26996E+01 4.19404E+01 8.95457E-03-4.05135E-03 4.47729E-03



                             - - - CURRENTS AND LOCATION - - -

                     LENGTHS NORMALIZED BY WAVELENGTH (OR 2.*PI/CABS(K))

  SEG.  TAG    COORD. OF SEG. CENTER     SEG.            - - - CURRENT (AMPS) - - -
  NO.   NO.     X        Y        Z      LENGTH     REAL        IMAG.       MAG.        PHASE
     1    0   0.0000   0.0000  -0.2143  0.07143   2.3240E-03 -1.3789E-03  2.7023E-03  -30.682
     2    0   0.0000   0.0000  -0.1429  0.07143   5.8907E-03 -3.2778E-03  6.7413E-03  -29.093
     3    0   0.0000   0.0000  -0.0714  0.07143   8.1823E-03 -4.1466E-03  9.1730E-03  -26.875
     4    0   0.0000   0.0000   0.0000  0.07143   8.9546E-03 -4.0513E-03  9.8284E-03  -24.344
     5    0   0.0000   0.0000   0.0714  0.07143   8.1823E-03 -4.1466E-03  9.1730E-03  -26.875
     6    0   0.0000   0.0000   0.1429  0.07143   5.8907E-03 -3.2778E-03  6.7413E-03  -29.093
     7    0   0.0000   0.0000   0.2143  0.07143   2.3240E-03 -1.3789E-03  2.7023E-03  -30.682



                                  - - - CHARGE DENSITIES - - -

                       LENGTHS NORMALIZED TO WAVELENGTH (OR 2.*PI/CABS(K))


  SEG.  TAG    COORD. OF SEG. CENTER     SEG.          CHARGE DENSITY (COULOMBS/METER)
  NO.   NO.     X        Y        Z      LENGTH     REAL        IMAG.       MAG.        PHASE
     1E   0   0.0000   0.0000  -0.2500  0.07143   2.1919E-11  3.6035E-11  4.2178E-11   58.690
     1    0   0.0000   0.0000  -0.2143  0.07143   1.8291E-11  3.1761E-11  3.6651E-11   60.062
     2    0   0.0000   0.0000  -0.1429  0.07143   1.0429E-11  2.2040E-11  2.4383E-11   64.677
     3    0   0.0000   0.0000  -0.0714  0.07143   2.1138E-12  1.1638E-11  1.1829E-11   79.706
     4    0   0.0000   0.0000   0.0000  0.07143   2.8931E-27 -1.1573E-26  1.1929E-26  -75.964
     5    0   0.0000   0.0000   0.0714  0.07143  -2.1138E-12 -1.1638E-11  1.1829E-11 -100.294
     6    0   0.0000   0.0000   0.1429  0.07143  -1.0429E-11 -2.2040E-11  2.4383E-11 -115.323
     7    0   0.0000   0.0000   0.2143  0.07143  -1.8291E-11 -3.1761E-11  3.6651E-11 -119.938
     7E   0   0.0000   0.0000   0.2500  0.07143  -2.1919E-11 -3.6035E-11  4.2178E-11 -121.310



                                        - - - POWER BUDGET - - -

                                           INPUT POWER   = 4.4773E-03 WATTS
                                           RADIATED POWER= 3.9943E-03 WATTS
                                           WIRE LOSS     = 4.8299E-04 WATTS
                                           EFFICIENCY    =  89.21 PERCENT



                                      - - - NEAR ELECTRIC FIELDS - - -

              -  LOCATION  -                     -  EX  -               -  EY  -               -  EZ  -
        X           Y           Z           MAGNITUDE   PHASE      MAGNITUDE   PHASE      MAGNITUDE   PHASE
      METERS      METERS      METERS         VOLTS/M   DEGREES      VOLTS/M   DEGREES      VOLTS/M   DEGREES
        0.0000      0.0000      0.0000     0.0000E+00     0.00    0.0000E+00     0.00    1.3042E+01  -175.10
        0.0000      0.0000      0.0179     0.0000E+00     0.00    0.0000E+00     0.00    1.2536E+01  -175.08
        0.0000      0.0000      0.0357     0.0000E+00     0.00    0.0000E+00     0.00    6.7270E+00  -175.46
        0.0000      0.0000      0.0536     0.0000E+00     0.00    0.0000E+00     0.00    8.4348E-01  -179.75
        0.0000      0.0000      0.0714     0.0000E+00     0.00    0.0000E+00     0.00    3.2912E-04    -4.14
        0.0000      0.0000      0.0893     0.0000E+00     0.00    0.0000E+00     0.00    3.4488E-01    -8.87
        0.0000      0.0000      0.1072     0.0000E+00     0.00    0.0000E+00     0.00    2.7987E-01    22.84
        0.0000      0.0000      0.1250     0.0000E+00     0.00    0.0000E+00     0.00    2.2073E-01    74.43
        0.0000      0.0000      0.1429     0.0000E+00     0.00    0.0000E+00     0.00    3.2422E-04  -106.81
        0.0000      0.0000      0.1607     0.0000E+00     0.00    0.0000E+00     0.00    2.1940E-01  -106.43
        0.0000      0.0000      0.1786     0.0000E+00     0.00    0.0000E+00     0.00    1.9747E+00    57.57
        0.0000      0.0000      0.1965     0.0000E+00     0.00    0.0000E+00     0.00    3.3108E+00    58.63
        0.0000      0.0000      0.2143     0.0000E+00     0.00    0.0000E+00     0.00    1.0230E-02  -121.55
        0.0000      0.0000      0.2322     0.0000E+00     0.00    0.0000E+00     0.00    1.0677E+01  -121.66
        0.0000      0.0000      0.2500     0.0000E+00     0.00    0.0000E+00     0.00    7.3668E+02  -121.37




 ***** INPUT LINE  6  NE   0    1    1   15  1.00000E-03  0.00000E+00  0.00000E+00  0.00000E+00  0.00000E+00  1.78600E-02



                                      - - - NEAR ELECTRIC FIELDS - - -

              -  LOCATION  -                     -  EX  -               -  EY  -               -  EZ  -
        X           Y           Z           MAGNITUDE   PHASE      MAGNITUDE   PHASE      MAGNITUDE   PHASE
      METERS      METERS      METERS         VOLTS/M   DEGREES      VOLTS/M   DEGREES      VOLTS/M   DEGREES
        0.0010      0.0000      0.0000     2.6799E-13   -80.29    0.0000E+00     0.00    1.2068E+01  -175.57
        0.0010      0.0000      0.0179     5.5432E+01   -66.34    0.0000E+00     0.00    1.1563E+01  -175.56
        0.0010      0.0000      0.0357     1.0947E+02   -67.51    0.0000E+00     0.00    6.3682E+00  -176.30
        0.0010      0.0000      0.0536     1.5608E+02   -88.87    0.0000E+00     0.00    1.0985E+00   177.07
        0.0010      0.0000      0.0714     2.1267E+02  -100.31    0.0000E+00     0.00    2.6119E-01   166.81
        0.0010      0.0000      0.0893     2.7146E+02  -106.86    0.0000E+00     0.00    8.6233E-02     4.26
        0.0010      0.0000      0.1072     3.2922E+02  -111.07    0.0000E+00     0.00    1.3831E-01    77.44
        0.0010      0.0000      0.1250     3.8591E+02  -113.51    0.0000E+00     0.00    2.5106E-01   124.56
        0.0010      0.0000      0.1429     4.3834E+02  -115.33    0.0000E+00     0.00    2.0187E-01  -178.22
        0.0010      0.0000      0.1607     4.8562E+02  -116.77    0.0000E+00     0.00    3.4158E-01  -140.60
        0.0010      0.0000      0.1786     5.2835E+02  -117.97    0.0000E+00     0.00    1.5253E+00    63.32
        0.0010      0.0000      0.1965     5.9658E+02  -119.06    0.0000E+00     0.00    2.5345E+00    62.10
        0.0010      0.0000      0.2143     6.5864E+02  -119.94    0.0000E+00     0.00    8.0360E-01  -132.39
        0.0010      0.0000      0.2322     7.1183E+02  -120.67    0.0000E+00     0.00    1.1430E+01  -122.41
        0.0010      0.0000      0.2500     6.2614E+02  -121.28    0.0000E+00     0.00    2.7833E+02  -121.49




 ***** INPUT LINE  7  NX   0    0    0    0  0.00000E+00  0.00000E+00  0.00000E+00  0.00000E+00  0.00000E+00  0.00000E+00
1



                                ***********************************************
                                *                                             *
                                *  NUMERICAL ELECTROMAGNETICS CODE (NEC-4.1)  *
                                *                                             *
                                ***********************************************




                      **********************************************************

                         EXAMPLE 2.  CENTER FED LINEAR ANTENNA.                                        
                                     CURRENT SLOPE DISCONTINUITY SOURCE.                               
                                     1. THIN PERFECTLY CONDUCTING WIRE                                 
                                     2. THIN ALUMINUM WIRE                                             

                      **********************************************************





                                 - - - STRUCTURE SPECIFICATION - - -

                                     COORDINATES MUST BE INPUT IN
                                     METERS OR BE SCALED TO METERS
                                     BEFORE STRUCTURE INPUT IS ENDED


  WIRE                                                                               NO. OF    FIRST  LAST     TAG
  NO.        X1         Y1         Z1          X2         Y2         Z2      RADIUS   SEG.     SEG.   SEG.     NO.
     1    0.00000    0.00000   -0.25000     0.00000    0.00000    0.25000    0.00001      8        1     8       0

   TOTAL SEGMENTS USED=    8     NO. SEG. IN A SYMMETRIC CELL=    8     SYMMETRY FLAG=  0


         - MULTIPLE WIRE JUNCTIONS -
 JUNCTION    SEGMENTS  (- FOR END 1, + FOR END 2)
  NONE




                                 - - - - SEGMENTATION DATA - - - -

                                        COORDINATES IN METERS

                         I+ AND I- INDICATE THE SEGMENTS BEFORE AND AFTER I


  SEG.   COORDINATES OF SEG. CENTER     SEG.     ORIENTATION ANGLES    WIRE    CONNECTION DATA   TAG
  NO.       X         Y         Z       LENGTH     ALPHA     BETA      RADIUS    I-   I    I+    NO.
     1   0.00000   0.00000  -0.21875   0.06250   90.00000   0.00000   0.00001     0    1    2      0
     2   0.00000   0.00000  -0.15625   0.06250   90.00000   0.00000   0.00001     1    2    3      0
     3   0.00000   0.00000  -0.09375   0.06250   90.00000   0.00000   0.00001     2    3    4      0
     4   0.00000   0.00000  -0.03125   0.06250   90.00000   0.00000   0.00001     3    4    5      0
     5   0.00000   0.00000   0.03125   0.06250   90.00000   0.00000   0.00001     4    5    6      0
     6   0.00000   0.00000   0.09375   0.06250   90.00000   0.00000   0.00001     5    6    7      0
     7   0.00000   0.00000   0.15625   0.06250   90.00000   0.00000   0.00001     6    7    8      0
     8   0.00000   0.00000   0.21875   0.06250   90.00000   0.00000   0.00001     7    8    0      0




 ***** INPUT LINE  1  FR   0    3    0    0  2.00000E+02  5.00000E+01  0.00000E+00  0.00000E+00  0.00000E+00  0.00000E+00
 ***** INPUT LINE  2  EX   5    0    5    1  1.00000E+00  0.00000E+00  5.00000E+01  0.00000E+00  0.00000E+00  0.00000E+00
 ***** INPUT LINE  3  XQ   0    0    0    0  0.00000E+00  0.00000E+00  0.00000E+00  0.00000E+00  0.00000E+00  0.00000E+00




                                 - - - - - - FREQUENCY - - - - - -

                                    FREQUENCY= 2.0000E+02 MHZ
                                    WAVELENGTH= 1.4990E+00 METERS



                                  - - - ANTENNA ENVIRONMENT - - -

                                            FREE SPACE



                               - - - STRUCTURE IMPEDANCE LOADING - - -

                                   THIS STRUCTURE IS NOT LOADED



                                - - - MATRIX TIMING - - -

                        FILL=    0.000 SEC.,  FACTOR=    0.000 SEC.



                                          - - - ANTENNA INPUT PARAMETERS - - -

   TAG   SEG.    VOLTAGE (VOLTS)         CURRENT (AMPS)         IMPEDANCE (OHMS)        ADMITTANCE (MHOS)      POWER
   NO.   NO.    REAL        IMAG.       REAL        IMAG.       REAL        IMAG.       REAL        IMAG.     (WATTS)
     0 *   5 1.00000E+00 0.00000E+00 6.64063E-05 1.57933E-03 2.65762E+01-6.32060E+02 6.64063E-05 1.57933E-03 3.32031E-05



                             - - - CURRENTS AND LOCATION - - -

                     LENGTHS NORMALIZED BY WAVELENGTH (OR 2.*PI/CABS(K))

  SEG.  TAG    COORD. OF SEG. CENTER     SEG.            - - - CURRENT (AMPS) - - -
  NO.   NO.     X        Y        Z      LENGTH     REAL        IMAG.       MAG.        PHASE
     1    0   0.0000   0.0000  -0.1459  0.04169   1.5369E-05  2.5220E-04  2.5267E-04   86.513
     2    0   0.0000   0.0000  -0.1042  0.04169   3.9856E-05  7.0589E-04  7.0702E-04   86.768
     3    0   0.0000   0.0000  -0.0625  0.04169   5.6673E-05  1.1008E-03  1.1023E-03   87.053
     4    0   0.0000   0.0000  -0.0208  0.04169   6.5314E-05  1.4319E-03  1.4334E-03   87.388
     5    0   0.0000   0.0000   0.0208  0.04169   6.5314E-05  1.4319E-03  1.4334E-03   87.388
     6    0   0.0000   0.0000   0.0625  0.04169   5.6673E-05  1.1008E-03  1.1023E-03   87.053
     7    0   0.0000   0.0000   0.1042  0.04169   3.9856E-05  7.0589E-04  7.0702E-04   86.768
     8    0   0.0000   0.0000   0.1459  0.04169   1.5369E-05  2.5220E-04  2.5267E-04   86.513



                                        - - - POWER BUDGET - - -

                                           INPUT POWER   = 3.3203E-05 WATTS
                                           RADIATED POWER= 3.3203E-05 WATTS
                                           WIRE LOSS     = 0.0000E+00 WATTS
                                           EFFICIENCY    = 100.00 PERCENT




                                 - - - - - - FREQUENCY - - - - - -

                                    FREQUENCY= 2.5000E+02 MHZ
                                    WAVELENGTH= 1.1992E+00 METERS



                                  - - - ANTENNA ENVIRONMENT - - -

                                            FREE SPACE



                               - - - STRUCTURE IMPEDANCE LOADING - - -

                                   THIS STRUCTURE IS NOT LOADED



                                - - - MATRIX TIMING - - -

                        FILL=    0.000 SEC.,  FACTOR=    0.000 SEC.



                                          - - - ANTENNA INPUT PARAMETERS - - -

   TAG   SEG.    VOLTAGE (VOLTS)         CURRENT (AMPS)         IMPEDANCE (OHMS)        ADMITTANCE (MHOS)      POWER
   NO.   NO.    REAL        IMAG.       REAL        IMAG.       REAL        IMAG.       REAL        IMAG.     (WATTS)
     0 *   5 1.00000E+00 0.00000E+00 6.16989E-04 3.56466E-03 4.71435E+01-2.72372E+02 6.16989E-04 3.56466E-03 3.08494E-04



                             - - - CURRENTS AND LOCATION - - -

                     LENGTHS NORMALIZED BY WAVELENGTH (OR 2.*PI/CABS(K))

  SEG.  TAG    COORD. OF SEG. CENTER     SEG.            - - - CURRENT (AMPS) - - -
  NO.   NO.     X        Y        Z      LENGTH     REAL        IMAG.       MAG.        PHASE
     1    0   0.0000   0.0000  -0.1824  0.05212   1.3629E-04  6.4701E-04  6.6120E-04   78.105
     2    0   0.0000   0.0000  -0.1303  0.05212   3.6169E-04  1.7863E-03  1.8225E-03   78.553
     3    0   0.0000   0.0000  -0.0782  0.05212   5.2216E-04  2.7057E-03  2.7557E-03   79.077
     4    0   0.0000   0.0000  -0.0261  0.05212   6.0628E-04  3.3503E-03  3.4047E-03   79.743
     5    0   0.0000   0.0000   0.0261  0.05212   6.0628E-04  3.3503E-03  3.4047E-03   79.743
     6    0   0.0000   0.0000   0.0782  0.05212   5.2216E-04  2.7057E-03  2.7557E-03   79.077
     7    0   0.0000   0.0000   0.1303  0.05212   3.6169E-04  1.7863E-03  1.8225E-03   78.553
     8    0   0.0000   0.0000   0.1824  0.05212   1.3629E-04  6.4701E-04  6.6120E-04   78.105



                                        - - - POWER BUDGET - - -

                                           INPUT POWER   = 3.0849E-04 WATTS
                                           RADIATED POWER= 3.0849E-04 WATTS
                                           WIRE LOSS     = 0.0000E+00 WATTS
                                           EFFICIENCY    = 100.00 PERCENT




                                 - - - - - - FREQUENCY - - - - - -

                                    FREQUENCY= 3.0000E+02 MHZ
                                    WAVELENGTH= 9.9933E-01 METERS



                                  - - - ANTENNA ENVIRONMENT - - -

                                            FREE SPACE



                               - - - STRUCTURE IMPEDANCE LOADING - - -

                                   THIS STRUCTURE IS NOT LOADED



                                - - - MATRIX TIMING - - -

                        FILL=    0.000 SEC.,  FACTOR=    0.000 SEC.



                                          - - - ANTENNA INPUT PARAMETERS - - -

   TAG   SEG.    VOLTAGE (VOLTS)         CURRENT (AMPS)         IMPEDANCE (OHMS)        ADMITTANCE (MHOS)      POWER
   NO.   NO.    REAL        IMAG.       REAL        IMAG.       REAL        IMAG.       REAL        IMAG.     (WATTS)
     0 *   5 1.00000E+00 0.00000E+00 9.38999E-03-5.32896E-03 8.05525E+01 4.57148E+01 9.38999E-03-5.32896E-03 4.69500E-03



                             - - - CURRENTS AND LOCATION - - -

                     LENGTHS NORMALIZED BY WAVELENGTH (OR 2.*PI/CABS(K))

  SEG.  TAG    COORD. OF SEG. CENTER     SEG.            - - - CURRENT (AMPS) - - -
  NO.   NO.     X        Y        Z      LENGTH     REAL        IMAG.       MAG.        PHASE
     1    0   0.0000   0.0000  -0.2189  0.06254   1.9607E-03 -1.2798E-03  2.3414E-03  -33.135
     2    0   0.0000   0.0000  -0.1564  0.06254   5.3516E-03 -3.4033E-03  6.3421E-03  -32.454
     3    0   0.0000   0.0000  -0.0938  0.06254   7.8677E-03 -4.8420E-03  9.2383E-03  -31.610
     4    0   0.0000   0.0000  -0.0313  0.06254   9.2167E-03 -5.4146E-03  1.0690E-02  -30.433
     5    0   0.0000   0.0000   0.0313  0.06254   9.2167E-03 -5.4146E-03  1.0690E-02  -30.433
     6    0   0.0000   0.0000   0.0938  0.06254   7.8677E-03 -4.8420E-03  9.2383E-03  -31.610
     7    0   0.0000   0.0000   0.1564  0.06254   5.3516E-03 -3.4033E-03  6.3421E-03  -32.454
     8    0   0.0000   0.0000   0.2189  0.06254   1.9607E-03 -1.2798E-03  2.3414E-03  -33.135



                                        - - - POWER BUDGET - - -

                                           INPUT POWER   = 4.6950E-03 WATTS
                                           RADIATED POWER= 4.6950E-03 WATTS
                                           WIRE LOSS     = 0.0000E+00 WATTS
                                           EFFICIENCY    = 100.00 PERCENT



                                    - - - INPUT IMPEDANCE DATA - - -
                                             SOURCE SEGMENT NO.   5
                                             NORMALIZATION FACTOR= 5.00000E+01

       FREQ.             -  -  UNNORMALIZED IMPEDANCE  -  -                     -  -  NORMALIZED IMPEDANCE  -  -
                   RESISTANCE    REACTANCE      MAGNITUDE    PHASE       RESISTANCE    REACTANCE      MAGNITUDE    PHASE
        MHZ           OHMS          OHMS           OHMS     DEGREES                                               DEGREES

     200.000     2.65762E+01  -6.32060E+02    6.32619E+02   -87.59     5.31525E-01  -1.26412E+01    1.26524E+01   -87.59
     250.000     4.71435E+01  -2.72372E+02    2.76422E+02   -80.18     9.42869E-01  -5.44744E+00    5.52843E+00   -80.18
     300.000     8.05525E+01   4.57148E+01    9.26205E+01    29.58     1.61105E+00   9.14295E-01    1.85241E+00    29.58







 ***** INPUT LINE  4  LD   5    0    0    0  3.72000E+07  0.00000E+00  0.00000E+00  0.00000E+00  0.00000E+00  0.00000E+00
 ***** INPUT LINE  5  FR   0    1    0    0  3.00000E+02  0.00000E+00  0.00000E+00  0.00000E+00  0.00000E+00  0.00000E+00
 ***** INPUT LINE  6  EX   5    0    5    0  1.00000E+00  0.00000E+00  0.00000E+00  0.00000E+00  0.00000E+00  0.00000E+00
 ***** INPUT LINE  7  XQ   0    0    0    0  0.00000E+00  0.00000E+00  0.00000E+00  0.00000E+00  0.00000E+00  0.00000E+00




                                 - - - - - - FREQUENCY - - - - - -

                                    FREQUENCY= 3.0000E+02 MHZ
                                    WAVELENGTH= 9.9933E-01 METERS



                                  - - - ANTENNA ENVIRONMENT - - -

                                            FREE SPACE



                               - - - STRUCTURE IMPEDANCE LOADING - - -


       LOCATION          RESISTANCE   INDUCTANCE  CAPACITANCE       IMPEDANCE (OHMS)     CONDUCTIVITY    TYPE
    ITAG FROM THRU          OHMS        HENRYS       FARADS        REAL      IMAGINARY    MHOS/METER

     ALL                                                                                 3.7200E+07     WIRE  



                                - - - MATRIX TIMING - - -

                        FILL=    0.000 SEC.,  FACTOR=    0.000 SEC.



                                          - - - ANTENNA INPUT PARAMETERS - - -

   TAG   SEG.    VOLTAGE (VOLTS)         CURRENT (AMPS)         IMPEDANCE (OHMS)        ADMITTANCE (MHOS)      POWER
   NO.   NO.    REAL        IMAG.       REAL        IMAG.       REAL        IMAG.       REAL        IMAG.     (WATTS)
     0 *   5 1.00000E+00 0.00000E+00 6.64425E-03-3.86653E-03 1.12431E+02 6.54279E+01 6.64425E-03-3.86653E-03 3.32212E-03



                             - - - CURRENTS AND LOCATION - - -

                     LENGTHS NORMALIZED BY WAVELENGTH (OR 2.*PI/CABS(K))

  SEG.  TAG    COORD. OF SEG. CENTER     SEG.            - - - CURRENT (AMPS) - - -
  NO.   NO.     X        Y        Z      LENGTH     REAL        IMAG.       MAG.        PHASE
     1    0   0.0000   0.0000  -0.2189  0.06254   1.3862E-03 -9.6304E-04  1.6879E-03  -34.790
     2    0   0.0000   0.0000  -0.1564  0.06254   3.7848E-03 -2.5546E-03  4.5662E-03  -34.018
     3    0   0.0000   0.0000  -0.0938  0.06254   5.5658E-03 -3.6090E-03  6.6335E-03  -32.960
     4    0   0.0000   0.0000  -0.0313  0.06254   6.5215E-03 -3.9782E-03  7.6391E-03  -31.384
     5    0   0.0000   0.0000   0.0313  0.06254   6.5215E-03 -3.9782E-03  7.6391E-03  -31.384
     6    0   0.0000   0.0000   0.0938  0.06254   5.5658E-03 -3.6090E-03  6.6335E-03  -32.960
     7    0   0.0000   0.0000   0.1564  0.06254   3.7848E-03 -2.5546E-03  4.5662E-03  -34.018
     8    0   0.0000   0.0000   0.2189  0.06254   1.3862E-03 -9.6304E-04  1.6879E-03  -34.790



                                        - - - POWER BUDGET - - -

                                           INPUT POWER   = 3.3221E-03 WATTS
                                           RADIATED POWER= 2.4402E-03 WATTS
                                           WIRE LOSS     = 8.8197E-04 WATTS
                                           EFFICIENCY    =  73.45 PERCENT




 ***** INPUT LINE  8  NX   0    0    0    0  0.00000E+00  0.00000E+00  0.00000E+00  0.00000E+00  0.00000E+00  0.00000E+00
1



                                ***********************************************
                                *                                             *
                                *  NUMERICAL ELECTROMAGNETICS CODE (NEC-4.1)  *
                                *                                             *
                                ***********************************************




                      **********************************************************

                         EXAMPLE 3.  VERTICAL HALF WAVELENGTH ANTENNA OVER GROUND                      
                                     1. PERFECT GROUND                                                 
                                     2. IMPERFECT GROUND INCLUDING GROUND WAVE AND RECEIVING           
                                        PATTERN CALCULATIONS                                           

                      **********************************************************





                                 - - - STRUCTURE SPECIFICATION - - -

                                     COORDINATES MUST BE INPUT IN
                                     METERS OR BE SCALED TO METERS
                                     BEFORE STRUCTURE INPUT IS ENDED


  WIRE                                                                               NO. OF    FIRST  LAST     TAG
  NO.        X1         Y1         Z1          X2         Y2         Z2      RADIUS   SEG.     SEG.   SEG.     NO.
     1    0.00000    0.00000    2.00000     0.00000    0.00000    7.00000    0.30000      9        1     9       0

   GROUND PLANE SPECIFIED.

   WHERE WIRE ENDS TOUCH GROUND, CURRENT WILL BE INTERPOLATED TO IMAGE IN GROUND PLANE.


   TOTAL SEGMENTS USED=    9     NO. SEG. IN A SYMMETRIC CELL=    9     SYMMETRY FLAG=  0


         - MULTIPLE WIRE JUNCTIONS -
 JUNCTION    SEGMENTS  (- FOR END 1, + FOR END 2)
  NONE




                                 - - - - SEGMENTATION DATA - - - -

                                        COORDINATES IN METERS

                         I+ AND I- INDICATE THE SEGMENTS BEFORE AND AFTER I


  SEG.   COORDINATES OF SEG. CENTER     SEG.     ORIENTATION ANGLES    WIRE    CONNECTION DATA   TAG
  NO.       X         Y         Z       LENGTH     ALPHA     BETA      RADIUS    I-   I    I+    NO.
     1   0.00000   0.00000   2.27778   0.55556   90.00000   0.00000   0.30000     0    1    2      0
     2   0.00000   0.00000   2.83333   0.55556   90.00000   0.00000   0.30000     1    2    3      0
     3   0.00000   0.00000   3.38889   0.55556   90.00000   0.00000   0.30000     2    3    4      0
     4   0.00000   0.00000   3.94444   0.55556   90.00000   0.00000   0.30000     3    4    5      0
     5   0.00000   0.00000   4.50000   0.55556   90.00000   0.00000   0.30000     4    5    6      0
     6   0.00000   0.00000   5.05556   0.55556   90.00000   0.00000   0.30000     5    6    7      0
     7   0.00000   0.00000   5.61111   0.55556   90.00000   0.00000   0.30000     6    7    8      0
     8   0.00000   0.00000   6.16667   0.55556   90.00000   0.00000   0.30000     7    8    9      0
     9   0.00000   0.00000   6.72222   0.55556   90.00000   0.00000   0.30000     8    9    0      0




 ***** INPUT LINE  1  FR   0    1    0    0  3.00000E+01  0.00000E+00  0.00000E+00  0.00000E+00  0.00000E+00  0.00000E+00
 ***** INPUT LINE  2  EX   0    0    5    0  1.00000E+00  0.00000E+00  0.00000E+00  0.00000E+00  0.00000E+00  0.00000E+00
 ***** INPUT LINE  3  GN   1    0    0    0  0.00000E+00  0.00000E+00  0.00000E+00  0.00000E+00  0.00000E+00  0.00000E+00
 ***** INPUT LINE  4  RP   0   10    2 1301  0.00000E+00  0.00000E+00  1.00000E+01  9.00000E+01  0.00000E+00  0.00000E+00




                                 - - - - - - FREQUENCY - - - - - -

                                    FREQUENCY= 3.0000E+01 MHZ
                                    WAVELENGTH= 9.9933E+00 METERS



                                  - - - ANTENNA ENVIRONMENT - - -

                                          PERFECT GROUND



                               - - - STRUCTURE IMPEDANCE LOADING - - -

                                   THIS STRUCTURE IS NOT LOADED



                                - - - MATRIX TIMING - - -

                        FILL=    0.000 SEC.,  FACTOR=    0.000 SEC.



                                          - - - ANTENNA INPUT PARAMETERS - - -

   TAG   SEG.    VOLTAGE (VOLTS)         CURRENT (AMPS)         IMPEDANCE (OHMS)        ADMITTANCE (MHOS)      POWER
   NO.   NO.    REAL        IMAG.       REAL        IMAG.       REAL        IMAG.       REAL        IMAG.     (WATTS)
     0     5 1.00000E+00 0.00000E+00 9.45362E-03-2.45089E-05 1.05779E+02 2.74236E-01 9.45362E-03-2.45089E-05 4.72681E-03



                             - - - CURRENTS AND LOCATION - - -

                     LENGTHS NORMALIZED BY WAVELENGTH (OR 2.*PI/CABS(K))

  SEG.  TAG    COORD. OF SEG. CENTER     SEG.            - - - CURRENT (AMPS) - - -
  NO.   NO.     X        Y        Z      LENGTH     REAL        IMAG.       MAG.        PHASE
     1    0   0.0000   0.0000   0.2279  0.05559   2.8919E-03 -2.5813E-03  3.8763E-03  -41.752
     2    0   0.0000   0.0000   0.2835  0.05559   5.5642E-03 -4.1603E-03  6.9475E-03  -36.785
     3    0   0.0000   0.0000   0.3391  0.05559   7.5810E-03 -4.6063E-03  8.8707E-03  -31.283
     4    0   0.0000   0.0000   0.3947  0.05559   8.9151E-03 -4.0180E-03  9.7787E-03  -24.261
     5    0   0.0000   0.0000   0.4503  0.05559   9.4536E-03 -2.4509E-05  9.4536E-03   -0.149
     6    0   0.0000   0.0000   0.5059  0.05559   9.1337E-03 -4.0356E-03  9.9855E-03  -23.838
     7    0   0.0000   0.0000   0.5615  0.05559   7.9642E-03 -4.6311E-03  9.2128E-03  -30.178
     8    0   0.0000   0.0000   0.6171  0.05559   6.0055E-03 -4.1764E-03  7.3149E-03  -34.816
     9    0   0.0000   0.0000   0.6727  0.05559   3.2249E-03 -2.5767E-03  4.1278E-03  -38.625



                                        - - - POWER BUDGET - - -

                                           INPUT POWER   = 4.7268E-03 WATTS
                                           RADIATED POWER= 4.7268E-03 WATTS
                                           WIRE LOSS     = 0.0000E+00 WATTS
                                           EFFICIENCY    = 100.00 PERCENT



                                                - - - RADIATION PATTERNS - - -

  - - ANGLES - -          - POWER GAINS -        - - - POLARIZATION - - -    - - - E(THETA) - - -    - - - E(PHI) - - -
  THETA     PHI        VERT.   HOR.    TOTAL      AXIAL     TILT   SENSE     MAGNITUDE    PHASE      MAGNITUDE    PHASE 
 DEGREES  DEGREES       DB      DB      DB        RATIO     DEG.               VOLTS     DEGREES       VOLTS     DEGREES
    0.00     0.00    -999.99 -999.99 -999.99    0.00000     0.00            0.00000E+00     0.00    0.00000E+00     0.00
   10.00     0.00      -9.88 -999.99   -9.88    0.00000     0.00  LINEAR    1.70727E-01  -113.54    0.00000E+00     0.00
   20.00     0.00      -4.21 -999.99   -4.21    0.00000     0.00  LINEAR    3.27688E-01  -113.81    0.00000E+00     0.00
   30.00     0.00      -1.71 -999.99   -1.71    0.00000     0.00  LINEAR    4.37005E-01  -114.19    0.00000E+00     0.00
   40.00     0.00      -1.76 -999.99   -1.76    0.00000     0.00  LINEAR    4.34909E-01  -114.57    0.00000E+00     0.00
   50.00     0.00      -6.75 -999.99   -6.75    0.00000     0.00  LINEAR    2.44875E-01  -114.53    0.00000E+00     0.00
   60.00     0.00     -10.06 -999.99  -10.06    0.00000     0.00  LINEAR    1.67177E-01    62.40    0.00000E+00     0.00
   70.00     0.00       2.65 -999.99    2.65    0.00000     0.00  LINEAR    7.22664E-01    63.29    0.00000E+00     0.00
   80.00     0.00       7.18 -999.99    7.18    0.00000     0.00  LINEAR    1.21715E+00    63.24    0.00000E+00     0.00
   90.00     0.00       8.50 -999.99    8.50    0.00000     0.00  LINEAR    1.41677E+00    63.20    0.00000E+00     0.00
    0.00    90.00    -999.99 -999.99 -999.99    0.00000     0.00            0.00000E+00     0.00    0.00000E+00     0.00
   10.00    90.00      -9.88 -999.99   -9.88    0.00000     0.00  LINEAR    1.70727E-01  -113.54    0.00000E+00     0.00
   20.00    90.00      -4.21 -999.99   -4.21    0.00000     0.00  LINEAR    3.27688E-01  -113.81    0.00000E+00     0.00
   30.00    90.00      -1.71 -999.99   -1.71    0.00000     0.00  LINEAR    4.37005E-01  -114.19    0.00000E+00     0.00
   40.00    90.00      -1.76 -999.99   -1.76    0.00000     0.00  LINEAR    4.34909E-01  -114.57    0.00000E+00     0.00
   50.00    90.00      -6.75 -999.99   -6.75    0.00000     0.00  LINEAR    2.44875E-01  -114.53    0.00000E+00     0.00
   60.00    90.00     -10.06 -999.99  -10.06    0.00000     0.00  LINEAR    1.67177E-01    62.40    0.00000E+00     0.00
   70.00    90.00       2.65 -999.99    2.65    0.00000     0.00  LINEAR    7.22664E-01    63.29    0.00000E+00     0.00
   80.00    90.00       7.18 -999.99    7.18    0.00000     0.00  LINEAR    1.21715E+00    63.24    0.00000E+00     0.00
   90.00    90.00       8.50 -999.99    8.50    0.00000     0.00  LINEAR    1.41677E+00    63.20    0.00000E+00     0.00


   AVERAGE POWER GAIN= 2.01877E+00       SOLID ANGLE USED IN AVERAGING=( 0.5000)*PI STERADIANS.

   POWER RADIATED ASSUMING RADIATION INTO 4*PI STERADIANS = 9.54232E-03 WATTS




                                     - - - - NORMALIZED GAIN - - - -

                                        VERTICAL GAIN
                                      NORMALIZATION FACTOR =     8.50 DB

    - - ANGLES - -      GAIN           - - ANGLES - -      GAIN           - - ANGLES - -      GAIN
    THETA     PHI        DB            THETA     PHI        DB            THETA     PHI        DB
   DEGREES  DEGREES                   DEGREES  DEGREES                   DEGREES  DEGREES
      0.00     0.00  -1008.49           70.00     0.00     -5.85           40.00    90.00    -10.26
     10.00     0.00    -18.38           80.00     0.00     -1.32           50.00    90.00    -15.25
     20.00     0.00    -12.72           90.00     0.00      0.00           60.00    90.00    -18.56
     30.00     0.00    -10.22            0.00    90.00  -1008.49           70.00    90.00     -5.85
     40.00     0.00    -10.26           10.00    90.00    -18.38           80.00    90.00     -1.32
     50.00     0.00    -15.25           20.00    90.00    -12.72           90.00    90.00      0.00
     60.00     0.00    -18.56           30.00    90.00    -10.22




 ***** INPUT LINE  5  GN   0    0    0    0  6.00000E+00  1.00000E-03  0.00000E+00  0.00000E+00  0.00000E+00  0.00000E+00
 ***** INPUT LINE  6  RP   0   10    2 1301  0.00000E+00  0.00000E+00  1.00000E+01  9.00000E+01  0.00000E+00  0.00000E+00




                                 - - - - - - FREQUENCY - - - - - -

                                    FREQUENCY= 3.0000E+01 MHZ
                                    WAVELENGTH= 9.9933E+00 METERS



                                  - - - ANTENNA ENVIRONMENT - - -

                                        FINITE GROUND.  REFLECTION COEFFICIENT APPROXIMATION
                                        RELATIVE DIELECTRIC CONST.=  6.000
                                        CONDUCTIVITY= 1.000E-03 MHOS/METER
                                        COMPLEX DIELECTRIC CONSTANT= 6.00000E+00-5.99183E-01



                               - - - STRUCTURE IMPEDANCE LOADING - - -

                                   THIS STRUCTURE IS NOT LOADED



                                - - - MATRIX TIMING - - -

                        FILL=    0.000 SEC.,  FACTOR=    0.000 SEC.



                                          - - - ANTENNA INPUT PARAMETERS - - -

   TAG   SEG.    VOLTAGE (VOLTS)         CURRENT (AMPS)         IMPEDANCE (OHMS)        ADMITTANCE (MHOS)      POWER
   NO.   NO.    REAL        IMAG.       REAL        IMAG.       REAL        IMAG.       REAL        IMAG.     (WATTS)
     0     5 1.00000E+00 0.00000E+00 9.04517E-03-5.37988E-05 1.10552E+02 6.57543E-01 9.04517E-03-5.37988E-05 4.52258E-03



                             - - - CURRENTS AND LOCATION - - -

                     LENGTHS NORMALIZED BY WAVELENGTH (OR 2.*PI/CABS(K))

  SEG.  TAG    COORD. OF SEG. CENTER     SEG.            - - - CURRENT (AMPS) - - -
  NO.   NO.     X        Y        Z      LENGTH     REAL        IMAG.       MAG.        PHASE
     1    0   0.0000   0.0000   0.2279  0.05559   2.8751E-03 -2.5567E-03  3.8475E-03  -41.646
     2    0   0.0000   0.0000   0.2835  0.05559   5.4615E-03 -4.1520E-03  6.8605E-03  -37.243
     3    0   0.0000   0.0000   0.3391  0.05559   7.3684E-03 -4.6190E-03  8.6965E-03  -32.082
     4    0   0.0000   0.0000   0.3947  0.05559   8.5928E-03 -4.0447E-03  9.4972E-03  -25.207
     5    0   0.0000   0.0000   0.4503  0.05559   9.0452E-03 -5.3799E-05  9.0453E-03   -0.341
     6    0   0.0000   0.0000   0.5059  0.05559   8.6815E-03 -4.0567E-03  9.5826E-03  -25.046
     7    0   0.0000   0.0000   0.5615  0.05559   7.5241E-03 -4.6375E-03  8.8384E-03  -31.648
     8    0   0.0000   0.0000   0.6171  0.05559   5.6410E-03 -4.1681E-03  7.0139E-03  -36.461
     9    0   0.0000   0.0000   0.6727  0.05559   3.0109E-03 -2.5621E-03  3.9535E-03  -40.396



                                        - - - POWER BUDGET - - -

                                           INPUT POWER   = 4.5226E-03 WATTS
                                           RADIATED POWER= 4.5226E-03 WATTS
                                           WIRE LOSS     = 0.0000E+00 WATTS
                                           EFFICIENCY    = 100.00 PERCENT



                                                - - - RADIATION PATTERNS - - -

  - - ANGLES - -          - POWER GAINS -        - - - POLARIZATION - - -    - - - E(THETA) - - -    - - - E(PHI) - - -
  THETA     PHI        VERT.   HOR.    TOTAL      AXIAL     TILT   SENSE     MAGNITUDE    PHASE      MAGNITUDE    PHASE 
 DEGREES  DEGREES       DB      DB      DB        RATIO     DEG.               VOLTS     DEGREES       VOLTS     DEGREES
    0.00     0.00    -999.99 -999.99 -999.99    0.00000     0.00            0.00000E+00     0.00    0.00000E+00     0.00
   10.00     0.00     -12.88 -999.99  -12.88    0.00000     0.00  LINEAR    1.18226E-01  -123.90    0.00000E+00     0.00
   20.00     0.00      -7.19 -999.99   -7.19    0.00000     0.00  LINEAR    2.27567E-01  -128.12    0.00000E+00     0.00
   30.00     0.00      -4.48 -999.99   -4.48    0.00000     0.00  LINEAR    3.10746E-01  -136.54    0.00000E+00     0.00
   40.00     0.00      -3.47 -999.99   -3.47    0.00000     0.00  LINEAR    3.49292E-01  -152.66    0.00000E+00     0.00
   50.00     0.00      -2.96 -999.99   -2.96    0.00000     0.00  LINEAR    3.70491E-01   177.80    0.00000E+00     0.00
   60.00     0.00      -0.81 -999.99   -0.81    0.00000     0.00  LINEAR    4.74477E-01   142.78    0.00000E+00     0.00
   70.00     0.00       1.52 -999.99    1.52    0.00000     0.00  LINEAR    6.20232E-01   121.07    0.00000E+00     0.00
   80.00     0.00       0.62 -999.99    0.62    0.00000     0.00  LINEAR    5.59348E-01   111.10    0.00000E+00     0.00
   90.00     0.00    -138.24 -999.99 -138.24    0.00000     0.00  LINEAR    6.37994E-08   107.67    0.00000E+00     0.00
    0.00    90.00    -999.99 -999.99 -999.99    0.00000     0.00            0.00000E+00     0.00    0.00000E+00     0.00
   10.00    90.00     -12.88 -999.99  -12.88    0.00000     0.00  LINEAR    1.18226E-01  -123.90    0.00000E+00     0.00
   20.00    90.00      -7.19 -999.99   -7.19    0.00000     0.00  LINEAR    2.27567E-01  -128.12    0.00000E+00     0.00
   30.00    90.00      -4.48 -999.99   -4.48    0.00000     0.00  LINEAR    3.10746E-01  -136.54    0.00000E+00     0.00
   40.00    90.00      -3.47 -999.99   -3.47    0.00000     0.00  LINEAR    3.49292E-01  -152.66    0.00000E+00     0.00
   50.00    90.00      -2.96 -999.99   -2.96    0.00000     0.00  LINEAR    3.70491E-01   177.80    0.00000E+00     0.00
   60.00    90.00      -0.81 -999.99   -0.81    0.00000     0.00  LINEAR    4.74477E-01   142.78    0.00000E+00     0.00
   70.00    90.00       1.52 -999.99    1.52    0.00000     0.00  LINEAR    6.20232E-01   121.07    0.00000E+00     0.00
   80.00    90.00       0.62 -999.99    0.62    0.00000     0.00  LINEAR    5.59348E-01   111.10    0.00000E+00     0.00
   90.00    90.00    -138.24 -999.99 -138.24    0.00000     0.00  LINEAR    6.37994E-08   107.67    0.00000E+00     0.00


   AVERAGE POWER GAIN= 7.17751E-01       SOLID ANGLE USED IN AVERAGING=( 0.5000)*PI STERADIANS.

   POWER RADIATED ASSUMING RADIATION INTO 4*PI STERADIANS = 3.24609E-03 WATTS




                                     - - - - NORMALIZED GAIN - - - -

                                        VERTICAL GAIN
                                      NORMALIZATION FACTOR =     1.52 DB

    - - ANGLES - -      GAIN           - - ANGLES - -      GAIN           - - ANGLES - -      GAIN
    THETA     PHI        DB            THETA     PHI        DB            THETA     PHI        DB
   DEGREES  DEGREES                   DEGREES  DEGREES                   DEGREES  DEGREES
      0.00     0.00  -1001.51           70.00     0.00      0.00           40.00    90.00     -4.99
     10.00     0.00    -14.40           80.00     0.00     -0.90           50.00    90.00     -4.48
     20.00     0.00     -8.71           90.00     0.00   -139.75           60.00    90.00     -2.33
     30.00     0.00     -6.00            0.00    90.00  -1001.51           70.00    90.00      0.00
     40.00     0.00     -4.99           10.00    90.00    -14.40           80.00    90.00     -0.90
     50.00     0.00     -4.48           20.00    90.00     -8.71           90.00    90.00   -139.75
     60.00     0.00     -2.33           30.00    90.00     -6.00




 ***** INPUT LINE  7  RP   1   10    1    0  1.00000E+00  0.00000E+00  2.00000E+00  0.00000E+00  1.00000E+05  0.00000E+00



                             - - - RADIATED FIELDS NEAR GROUND - - -

        - - - LOCATION - - -          - - E(THETA) - -        - - E(PHI) - -        - - E(RADIAL) - -
       RHO      PHI         Z            MAG      PHASE         MAG      PHASE         MAG      PHASE
     METERS   DEGREES    METERS        VOLTS/M   DEGREES      VOLTS/M   DEGREES      VOLTS/M   DEGREES

   100000.00     0.00       1.00     2.2806E-09   147.04    0.0000E+00     0.00    8.3391E-10   -43.95
   100000.00     0.00       3.00     2.6853E-09   169.58    0.0000E+00     0.00    8.3389E-10   -43.95
   100000.00     0.00       5.00     3.3791E-09  -175.43    0.0000E+00     0.00    8.3384E-10   -43.95
   100000.00     0.00       7.00     4.2218E-09  -165.96    0.0000E+00     0.00    8.3377E-10   -43.96
   100000.00     0.00       9.00     5.1406E-09  -159.76    0.0000E+00     0.00    8.3369E-10   -43.96
   100000.00     0.00      11.00     6.1012E-09  -155.47    0.0000E+00     0.00    8.3361E-10   -43.96
   100000.00     0.00      13.00     7.0865E-09  -152.37    0.0000E+00     0.00    8.3352E-10   -43.97
   100000.00     0.00      15.00     8.0874E-09  -150.03    0.0000E+00     0.00    8.3343E-10   -43.98
   100000.00     0.00      17.00     9.0989E-09  -148.22    0.0000E+00     0.00    8.3333E-10   -43.99
   100000.00     0.00      19.00     1.0118E-08  -146.77    0.0000E+00     0.00    8.3324E-10   -44.00






 ***** INPUT LINE  8  EX   1   10    1    0  0.00000E+00  0.00000E+00  0.00000E+00  1.00000E+01  0.00000E+00  0.00000E+00
 ***** INPUT LINE  9  PT   2    0    5    5  0.00000E+00  0.00000E+00  0.00000E+00  0.00000E+00  0.00000E+00  0.00000E+00
 ***** INPUT LINE 10  XQ   0    0    0    0  0.00000E+00  0.00000E+00  0.00000E+00  0.00000E+00  0.00000E+00  0.00000E+00



                                 - - - RECEIVING PATTERN PARAMETERS - - -
                                           ETA=   0.00 DEGREES
                                           TYPE -LINEAR
                                           AXIAL RATIO= 0.000

           THETA      PHI          -  CURRENT  -         SEG
           (DEG)     (DEG)       MAGNITUDE    PHASE      NO.

             0.00      0.00     0.0000E+00      0.00        5
            10.00      0.00     6.2726E-03    -33.91        5
            20.00      0.00     1.2071E-02    -38.13        5
            30.00      0.00     1.6476E-02    -46.55        5
            40.00      0.00     1.8511E-02    -62.66        5
            50.00      0.00     1.9625E-02    -92.20        5
            60.00      0.00     2.5121E-02   -127.22        5
            70.00      0.00     3.2827E-02   -148.93        5
            80.00      0.00     2.9598E-02   -158.89        5
            90.00      0.00     1.4749E-12    104.58        5



                                - - - NORMALIZED RECEIVING PATTERN - - -
                                         NORMALIZATION FACTOR= 3.2827E-02
                                         ETA=   0.00 DEGREES
                                         TYPE -LINEAR
                                         AXIAL RATIO= 0.000
                                         SEGMENT NO.=    5

                     THETA      PHI         -  PATTERN  -
                     (DEG)     (DEG)        DB        MAGNITUDE

                       0.00      0.00    -999.99     0.0000E+00
                      10.00      0.00     -14.38     1.9108E-01
                      20.00      0.00      -8.69     3.6771E-01
                      30.00      0.00      -5.99     5.0191E-01
                      40.00      0.00      -4.98     5.6390E-01
                      50.00      0.00      -4.47     5.9783E-01
                      60.00      0.00      -2.32     7.6527E-01
                      70.00      0.00       0.00     1.0000E+00
                      80.00      0.00      -0.90     9.0163E-01
                      90.00      0.00    -206.95     4.4931E-11




 ***** INPUT LINE 11  NX   0    0    0    0  0.00000E+00  0.00000E+00  0.00000E+00  0.00000E+00  0.00000E+00  0.00000E+00
1



                                ***********************************************
                                *                                             *
                                *  NUMERICAL ELECTROMAGNETICS CODE (NEC-4.1)  *
                                *                                             *
                                ***********************************************




                      **********************************************************

                         EXAMPLE 4.  T ANTENNA ON A BOX OVER PERFECT GROUND                            

                      **********************************************************





                                 - - - STRUCTURE SPECIFICATION - - -

                                     COORDINATES MUST BE INPUT IN
                                     METERS OR BE SCALED TO METERS
                                     BEFORE STRUCTURE INPUT IS ENDED


  WIRE                                                                               NO. OF    FIRST  LAST     TAG
  NO.        X1         Y1         Z1          X2         Y2         Z2      RADIUS   SEG.     SEG.   SEG.     NO.
     1P   0.10000    0.05000    0.05000     0.00000    0.00000    0.01000
     2P   0.05000    0.10000    0.05000     0.00000   90.00000    0.01000
      STRUCTURE REFLECTED ALONG THE AXES X Y  .  TAGS INCREMENTED BY    0
     9P   0.00000    0.00000    0.10000    90.00000    0.00000    0.04000
     1    0.00000    0.00000    0.10000     0.00000    0.00000    0.30000    0.00100      4        1     4       1
     2    0.00000    0.00000    0.30000     0.15000    0.00000    0.30000    0.00100      2        5     6       2
     3    0.00000    0.00000    0.30000    -0.15000    0.00000    0.30000    0.00100      2        7     8       3

   GROUND PLANE SPECIFIED.

   WHERE WIRE ENDS TOUCH GROUND, CURRENT WILL BE INTERPOLATED TO IMAGE IN GROUND PLANE.


   TOTAL SEGMENTS USED=    8     NO. SEG. IN A SYMMETRIC CELL=    8     SYMMETRY FLAG=  0
   TOTAL PATCHES USED=   12      NO. PATCHES IN A SYMMETRIC CELL=   12


         - MULTIPLE WIRE JUNCTIONS -
 JUNCTION    SEGMENTS  (- FOR END 1, + FOR END 2)
     1         4   -5   -7




                                 - - - - SEGMENTATION DATA - - - -

                                        COORDINATES IN METERS

                         I+ AND I- INDICATE THE SEGMENTS BEFORE AND AFTER I


  SEG.   COORDINATES OF SEG. CENTER     SEG.     ORIENTATION ANGLES    WIRE    CONNECTION DATA   TAG
  NO.       X         Y         Z       LENGTH     ALPHA     BETA      RADIUS    I-   I    I+    NO.
     1   0.00000   0.00000   0.12500   0.05000   90.00000   0.00000   0.00100 30009    1    2      1
     2   0.00000   0.00000   0.17500   0.05000   90.00000   0.00000   0.00100     1    2    3      1
     3   0.00000   0.00000   0.22500   0.05000   90.00000   0.00000   0.00100     2    3    4      1
     4   0.00000   0.00000   0.27500   0.05000   90.00000   0.00000   0.00100     3    4    5      1
     5   0.03750   0.00000   0.30000   0.07500    0.00000   0.00000   0.00100    -7    5    6      2
     6   0.11250   0.00000   0.30000   0.07500    0.00000   0.00000   0.00100     5    6    0      2
     7  -0.03750   0.00000   0.30000   0.07500    0.00000 180.00000   0.00100     4    7    8      3
     8  -0.11250   0.00000   0.30000   0.07500    0.00000 180.00000   0.00100     7    8    0      3




                                            - - - SURFACE PATCH DATA - - -

                                                 COORDINATES IN METERS

 PATCH     COORD. OF PATCH CENTER       UNIT NORMAL VECTOR      PATCH            COMPONENTS OF UNIT TANGENT VECTORS
  NO.      X         Y         Z         X       Y       Z       AREA       X1      Y1      Z1       X2      Y2      Z2
    1   0.10000   0.05000   0.05000   1.0000  0.0000  0.0000   0.01000   0.0000  1.0000  0.0000   0.0000  0.0000  1.0000
    2   0.05000   0.10000   0.05000   0.0000  1.0000  0.0000   0.01000  -1.0000  0.0000  0.0000   0.0000  0.0000  1.0000
    3   0.10000  -0.05000   0.05000   1.0000  0.0000  0.0000   0.01000   0.0000 -1.0000  0.0000   0.0000  0.0000  1.0000
    4   0.05000  -0.10000   0.05000   0.0000 -1.0000  0.0000   0.01000  -1.0000  0.0000  0.0000   0.0000  0.0000  1.0000
    5  -0.10000   0.05000   0.05000  -1.0000  0.0000  0.0000   0.01000   0.0000  1.0000  0.0000   0.0000  0.0000  1.0000
    6  -0.05000   0.10000   0.05000   0.0000  1.0000  0.0000   0.01000   1.0000  0.0000  0.0000   0.0000  0.0000  1.0000
    7  -0.10000  -0.05000   0.05000  -1.0000  0.0000  0.0000   0.01000   0.0000 -1.0000  0.0000   0.0000  0.0000  1.0000
    8  -0.05000  -0.10000   0.05000   0.0000 -1.0000  0.0000   0.01000   1.0000  0.0000  0.0000   0.0000  0.0000  1.0000
    9   0.05000   0.05000   0.10000   0.0000  0.0000  1.0000   0.01000   1.0000  0.0000  0.0000   0.0000  1.0000  0.0000
   10  -0.05000   0.05000   0.10000   0.0000  0.0000  1.0000   0.01000   1.0000  0.0000  0.0000   0.0000  1.0000  0.0000
   11  -0.05000  -0.05000   0.10000   0.0000  0.0000  1.0000   0.01000   1.0000  0.0000  0.0000   0.0000  1.0000  0.0000
   12   0.05000  -0.05000   0.10000   0.0000  0.0000  1.0000   0.01000   1.0000  0.0000  0.0000   0.0000  1.0000  0.0000




 ***** INPUT LINE  1  GN   1    0    0    0  0.00000E+00  0.00000E+00  0.00000E+00  0.00000E+00  0.00000E+00  0.00000E+00
 ***** INPUT LINE  2  EX   0    1    1    0  1.00000E+00  0.00000E+00  0.00000E+00  0.00000E+00  0.00000E+00  0.00000E+00
 ***** INPUT LINE  3  RP   0   10    4 1001  0.00000E+00  0.00000E+00  1.00000E+01  3.00000E+01  0.00000E+00  0.00000E+00




                                 - - - - - - FREQUENCY - - - - - -

                                    FREQUENCY= 2.9980E+02 MHZ
                                    WAVELENGTH= 1.0000E+00 METERS



                                  - - - ANTENNA ENVIRONMENT - - -

                                          PERFECT GROUND



                               - - - STRUCTURE IMPEDANCE LOADING - - -

                                   THIS STRUCTURE IS NOT LOADED



                                - - - MATRIX TIMING - - -

                        FILL=    0.000 SEC.,  FACTOR=    0.000 SEC.



                                          - - - ANTENNA INPUT PARAMETERS - - -

   TAG   SEG.    VOLTAGE (VOLTS)         CURRENT (AMPS)         IMPEDANCE (OHMS)        ADMITTANCE (MHOS)      POWER
   NO.   NO.    REAL        IMAG.       REAL        IMAG.       REAL        IMAG.       REAL        IMAG.     (WATTS)
     1     1 1.00000E+00 0.00000E+00 2.17993E-03-2.66254E-03 1.84097E+02 2.24853E+02 2.17993E-03-2.66254E-03 1.08997E-03



                             - - - CURRENTS AND LOCATION - - -

                     LENGTHS NORMALIZED BY WAVELENGTH (OR 2.*PI/CABS(K))

  SEG.  TAG    COORD. OF SEG. CENTER     SEG.            - - - CURRENT (AMPS) - - -
  NO.   NO.     X        Y        Z      LENGTH     REAL        IMAG.       MAG.        PHASE
     1    1   0.0000   0.0000   0.1250  0.05000   2.1799E-03 -2.6625E-03  3.4411E-03  -50.691
     2    1   0.0000   0.0000   0.1750  0.05000   2.1579E-03 -3.4413E-03  4.0619E-03  -57.911
     3    1   0.0000   0.0000   0.2250  0.05000   2.0988E-03 -3.8734E-03  4.4055E-03  -61.549
     4    1   0.0000   0.0000   0.2750  0.05000   1.9793E-03 -3.8860E-03  4.3611E-03  -63.008
     5    2   0.0375   0.0000   0.3000  0.07500   7.9588E-04 -1.5851E-03  1.7737E-03  -63.339
     6    2   0.1125   0.0000   0.3000  0.07500   3.1430E-04 -6.4730E-04  7.1957E-04  -64.101
     7    3  -0.0375   0.0000   0.3000  0.07500   7.9588E-04 -1.5851E-03  1.7737E-03  -63.339
     8    3  -0.1125   0.0000   0.3000  0.07500   3.1430E-04 -6.4730E-04  7.1957E-04  -64.101




                                         - - - - SURFACE PATCH CURRENTS - - - -

                                                  DISTANCES IN WAVELENGTHS (2.*PI/CABS(K))
                                                  CURRENT IN AMPS/METER

                            - - SURFACE COMPONENTS - -                   - - - RECTANGULAR COMPONENTS - - -
      PATCH CENTER      TANGENT VECTOR 1   TANGENT VECTOR 2           X                   Y                   Z
     X      Y      Z     MAG.       PHASE   MAG.       PHASE    REAL      IMAG.     REAL      IMAG.     REAL      IMAG. 
    1
   0.100  0.050  0.050 1.1832E-03  111.34 8.2597E-03 -116.30  0.00E+00  0.00E+00 -4.30E-04  1.10E-03 -3.66E-03 -7.40E-03
    2
   0.050  0.100  0.050 1.1755E-03  -68.82 8.0984E-03 -117.13 -4.25E-04  1.10E-03 -2.17E-15  5.59E-15 -3.69E-03 -7.21E-03
    3
   0.100 -0.050  0.050 1.1832E-03  111.34 8.2597E-03 -116.30  0.00E+00  0.00E+00  4.30E-04 -1.10E-03 -3.66E-03 -7.40E-03
    4
   0.050 -0.100  0.050 1.1755E-03  -68.82 8.0984E-03 -117.13 -4.25E-04  1.10E-03  2.17E-15 -5.59E-15 -3.69E-03 -7.21E-03
    5
  -0.100  0.050  0.050 1.1832E-03  111.34 8.2597E-03 -116.30  0.00E+00  0.00E+00 -4.30E-04  1.10E-03 -3.66E-03 -7.40E-03
    6
  -0.050  0.100  0.050 1.1755E-03  -68.82 8.0984E-03 -117.13  4.25E-04 -1.10E-03 -2.17E-15  5.59E-15 -3.69E-03 -7.21E-03
    7
  -0.100 -0.050  0.050 1.1832E-03  111.34 8.2597E-03 -116.30  0.00E+00  0.00E+00  4.30E-04 -1.10E-03 -3.66E-03 -7.40E-03
    8
  -0.050 -0.100  0.050 1.1755E-03  -68.82 8.0984E-03 -117.13  4.25E-04 -1.10E-03  2.17E-15 -5.59E-15 -3.69E-03 -7.21E-03
    9
   0.050  0.050  0.100 6.8284E-03  111.24 6.6278E-03  111.27 -2.47E-03  6.36E-03 -2.40E-03  6.18E-03  0.00E+00  0.00E+00
   10
  -0.050  0.050  0.100 6.8284E-03  -68.76 6.6278E-03  111.27  2.47E-03 -6.36E-03 -2.40E-03  6.18E-03  0.00E+00  0.00E+00
   11
  -0.050 -0.050  0.100 6.8284E-03  -68.76 6.6278E-03  -68.73  2.47E-03 -6.36E-03  2.40E-03 -6.18E-03  0.00E+00  0.00E+00
   12
   0.050 -0.050  0.100 6.8284E-03  111.24 6.6278E-03  -68.73 -2.47E-03  6.36E-03  2.40E-03 -6.18E-03  0.00E+00  0.00E+00



                                        - - - POWER BUDGET - - -

                                           INPUT POWER   = 1.0900E-03 WATTS
                                           RADIATED POWER= 1.0900E-03 WATTS
                                           WIRE LOSS     = 0.0000E+00 WATTS
                                           EFFICIENCY    = 100.00 PERCENT



                                                - - - RADIATION PATTERNS - - -

  - - ANGLES - -          - POWER GAINS -        - - - POLARIZATION - - -    - - - E(THETA) - - -    - - - E(PHI) - - -
  THETA     PHI        VERT.   HOR.    TOTAL      AXIAL     TILT   SENSE     MAGNITUDE    PHASE      MAGNITUDE    PHASE 
 DEGREES  DEGREES       DB      DB      DB        RATIO     DEG.               VOLTS     DEGREES       VOLTS     DEGREES
    0.00     0.00    -999.99 -999.99 -999.99    0.00000     0.00            2.63139E-17   129.09    1.51700E-17   104.62
   10.00     0.00     -13.76 -999.99  -13.76    0.00000     0.00  LINEAR    5.24152E-02    -8.09    8.29667E-18    90.00
   20.00     0.00      -7.53 -999.99   -7.53    0.00000     0.00  LINEAR    1.07389E-01    -6.16    8.93488E-18    90.00
   30.00     0.00      -3.71 -999.99   -3.71    0.00000     0.00  LINEAR    1.66732E-01    -3.44    9.65780E-18    97.59
   40.00     0.00      -0.90 -999.99   -0.90    0.00000     0.00  LINEAR    2.30546E-01    -0.47    4.03637E-18    71.57
   50.00     0.00       1.28 -999.99    1.28    0.00000     0.00  LINEAR    2.96354E-01     2.31    5.88396E-18   102.53
   60.00     0.00       2.95 -999.99    2.95    0.00000     0.00  LINEAR    3.58947E-01     4.60    4.64621E-18    74.05
   70.00     0.00       4.13 -999.99    4.13    0.00000     0.00  LINEAR    4.11285E-01     6.28    5.88396E-18    77.47
   80.00     0.00       4.84 -999.99    4.84    0.00000     0.00  LINEAR    4.46239E-01     7.29    2.85414E-18    26.57
   90.00     0.00       5.07 -999.99    5.07    0.00000     0.00  LINEAR    4.58537E-01     7.63    2.85414E-18  -116.57
    0.00    30.00    -999.99 -999.99 -999.99    0.00000     0.00            2.98578E-17   123.05    5.57308E-18    26.66
   10.00    30.00     -14.02  -37.74  -14.00    0.03788    -3.04  RIGHT     5.08749E-02    -9.29    3.31671E-03  -153.65
   20.00    30.00      -7.78  -31.70   -7.76    0.03512    -3.04  RIGHT     1.04393E-01    -7.22    6.65069E-03  -153.65
   30.00    30.00      -3.93  -28.28   -3.92    0.03081    -2.99  RIGHT     1.62562E-01    -4.29    9.85483E-03  -153.65
   40.00    30.00      -1.08  -26.20   -1.07    0.02548    -2.82  RIGHT     2.25791E-01    -1.09    1.25178E-02  -153.65
   50.00    30.00       1.15  -25.23    1.16    0.01980    -2.50  RIGHT     2.91871E-01     1.90    1.39927E-02  -153.65
   60.00    30.00       2.87  -25.49    2.87    0.01428    -2.03  RIGHT     3.55596E-01     4.37    1.35918E-02  -153.65
   70.00    30.00       4.09  -27.40    4.10    0.00918    -1.43  RIGHT     4.09539E-01     6.17    1.09041E-02  -153.65
   80.00    30.00       4.83  -32.45    4.83    0.00447    -0.74  RIGHT     4.45896E-01     7.26    6.09516E-03  -153.65
   90.00    30.00       5.08 -175.26    5.08    0.00000     0.00  LINEAR    4.58750E-01     7.62    4.41070E-10  -153.65
    0.00    60.00    -999.99 -999.99 -999.99    0.00000     0.00            2.56971E-17   116.87    1.61928E-17   -39.72
   10.00    60.00     -14.55  -37.73  -14.53    0.04285    -3.12  RIGHT     4.78614E-02   -11.92    3.32118E-03  -153.65
   20.00    60.00      -8.29  -31.65   -8.27    0.03966    -3.15  RIGHT     9.84705E-02    -9.54    6.68451E-03  -153.66
   30.00    60.00      -4.39  -28.19   -4.37    0.03457    -3.12  RIGHT     1.54197E-01    -6.15    9.95790E-03  -153.68
   40.00    60.00      -1.46  -26.06   -1.44    0.02825    -2.96  RIGHT     2.16095E-01    -2.44    1.27252E-02  -153.69
   50.00    60.00       0.87  -25.04    0.88    0.02157    -2.62  RIGHT     2.82571E-01     1.04    1.43094E-02  -153.70
   60.00    60.00       2.69  -25.25    2.70    0.01526    -2.12  RIGHT     3.48500E-01     3.90    1.39723E-02  -153.71
   70.00    60.00       4.01  -27.13    4.01    0.00963    -1.49  RIGHT     4.05698E-01     5.97    1.12550E-02  -153.71
   80.00    60.00       4.81  -32.16    4.81    0.00463    -0.77  RIGHT     4.44953E-01     7.21    6.30753E-03  -153.71
   90.00    60.00       5.08 -174.96    5.08    0.00000     0.00  LINEAR    4.58964E-01     7.62    4.56839E-10  -153.72
    0.00    90.00    -999.99 -999.99 -999.99    0.00000     0.00            1.51700E-17   104.62    2.63139E-17   -50.91
   10.00    90.00     -14.82 -188.75  -14.82    0.00000     0.00  LINEAR    4.63930E-02   -13.37    9.33904E-11  -153.66
   20.00    90.00      -8.55 -182.65   -8.55    0.00000     0.00  LINEAR    9.55519E-02   -10.81    1.88315E-10  -153.67
   30.00    90.00      -4.63 -179.17   -4.63    0.00000     0.00  LINEAR    1.50010E-01    -7.17    2.81276E-10  -153.69
   40.00    90.00      -1.66 -177.01   -1.66    0.00000     0.00  LINEAR    2.11160E-01    -3.17    3.60516E-10  -153.71
   50.00    90.00       0.72 -175.97    0.72    0.00000     0.00  LINEAR    2.77755E-01     0.57    4.06582E-10  -153.72
   60.00    90.00       2.60 -176.15    2.60    0.00000     0.00  LINEAR    3.44753E-01     3.64    3.98023E-10  -153.73
   70.00    90.00       3.97 -178.02    3.97    0.00000     0.00  LINEAR    4.03603E-01     5.87    3.21254E-10  -153.74
   80.00    90.00       4.80 -183.03    4.80    0.00000     0.00  LINEAR    4.44352E-01     7.19    1.80263E-10  -153.74
   90.00    90.00       5.08 -999.99    5.08    0.00000     0.00  LINEAR    4.58965E-01     7.63    1.51256E-17  -150.20


   AVERAGE POWER GAIN= 1.80188E+00       SOLID ANGLE USED IN AVERAGING=( 0.5000)*PI STERADIANS.

   POWER RADIATED ASSUMING RADIATION INTO 4*PI STERADIANS = 1.96399E-03 WATTS






 ***** INPUT LINE  4  NX   0    0    0    0  0.00000E+00  0.00000E+00  0.00000E+00  0.00000E+00  0.00000E+00  0.00000E+00
1



                                ***********************************************
                                *                                             *
                                *  NUMERICAL ELECTROMAGNETICS CODE (NEC-4.1)  *
                                *                                             *
                                ***********************************************




                      **********************************************************

                          12 ELEMENT LOG PERIODIC ANTENNA IN FREE SPACE.                               
                            78 SEGMENTS.     SIGMA=D/L       RECEIVING AND TRANS. PATTERNS.            
                          DIPOLE LENGTH TO DIAMETER RATIO=150.                                         
                          TAU=0.93,    SIGMA=0.70,     BOOM IMPEDANCE=50. OHMS.                        

                      **********************************************************





                                 - - - STRUCTURE SPECIFICATION - - -

                                     COORDINATES MUST BE INPUT IN
                                     METERS OR BE SCALED TO METERS
                                     BEFORE STRUCTURE INPUT IS ENDED


  WIRE                                                                               NO. OF    FIRST  LAST     TAG
  NO.        X1         Y1         Z1          X2         Y2         Z2      RADIUS   SEG.     SEG.   SEG.     NO.
     1    0.00000   -1.00000    0.00000     0.00000    1.00000    0.00000    0.00667      5        1     5       1
     2   -0.75270   -1.07530    0.00000    -0.75270    1.07530    0.00000    0.00717      5        6    10       2
     3   -1.56200   -1.15620    0.00000    -1.56200    1.15620    0.00000    0.00771      5       11    15       3
     4   -2.43230   -1.24320    0.00000    -2.43230    1.24320    0.00000    0.00829      5       16    20       4
     5   -3.36800   -1.33680    0.00000    -3.36800    1.33680    0.00000    0.00891      5       21    25       5
     6   -4.37420   -1.43740    0.00000    -4.37420    1.43740    0.00000    0.00958      7       26    32       6
     7   -5.45620   -1.54560    0.00000    -5.45620    1.54560    0.00000    0.01030      7       33    39       7
     8   -6.61950   -1.66190    0.00000    -6.61950    1.66190    0.00000    0.01108      7       40    46       8
     9   -7.87050   -1.78700    0.00000    -7.87050    1.78700    0.00000    0.01191      7       47    53       9
    10   -9.21560   -1.92150    0.00000    -9.21560    1.92150    0.00000    0.01281      7       54    60      10
    11  -10.66190   -2.06620    0.00000   -10.66190    2.06620    0.00000    0.01377      9       61    69      11
    12  -12.21710   -2.22170    0.00000   -12.21710    2.22170    0.00000    0.01481      9       70    78      12

   TOTAL SEGMENTS USED=   78     NO. SEG. IN A SYMMETRIC CELL=   78     SYMMETRY FLAG=  0


         - MULTIPLE WIRE JUNCTIONS -
 JUNCTION    SEGMENTS  (- FOR END 1, + FOR END 2)
  NONE




                                 - - - - SEGMENTATION DATA - - - -

                                        COORDINATES IN METERS

                         I+ AND I- INDICATE THE SEGMENTS BEFORE AND AFTER I


  SEG.   COORDINATES OF SEG. CENTER     SEG.     ORIENTATION ANGLES    WIRE    CONNECTION DATA   TAG
  NO.       X         Y         Z       LENGTH     ALPHA     BETA      RADIUS    I-   I    I+    NO.
     1   0.00000  -0.80000   0.00000   0.40000    0.00000  90.00000   0.00667     0    1    2      1
     2   0.00000  -0.40000   0.00000   0.40000    0.00000  90.00000   0.00667     1    2    3      1
     3   0.00000   0.00000   0.00000   0.40000    0.00000  90.00000   0.00667     2    3    4      1
     4   0.00000   0.40000   0.00000   0.40000    0.00000  90.00000   0.00667     3    4    5      1
     5   0.00000   0.80000   0.00000   0.40000    0.00000  90.00000   0.00667     4    5    0      1
     6  -0.75270  -0.86024   0.00000   0.43012    0.00000  90.00000   0.00717     0    6    7      2
     7  -0.75270  -0.43012   0.00000   0.43012    0.00000  90.00000   0.00717     6    7    8      2
     8  -0.75270   0.00000   0.00000   0.43012    0.00000  90.00000   0.00717     7    8    9      2
     9  -0.75270   0.43012   0.00000   0.43012    0.00000  90.00000   0.00717     8    9   10      2
    10  -0.75270   0.86024   0.00000   0.43012    0.00000  90.00000   0.00717     9   10    0      2
    11  -1.56200  -0.92496   0.00000   0.46248    0.00000  90.00000   0.00771     0   11   12      3
    12  -1.56200  -0.46248   0.00000   0.46248    0.00000  90.00000   0.00771    11   12   13      3
    13  -1.56200   0.00000   0.00000   0.46248    0.00000  90.00000   0.00771    12   13   14      3
    14  -1.56200   0.46248   0.00000   0.46248    0.00000  90.00000   0.00771    13   14   15      3
    15  -1.56200   0.92496   0.00000   0.46248    0.00000  90.00000   0.00771    14   15    0      3
    16  -2.43230  -0.99456   0.00000   0.49728    0.00000  90.00000   0.00829     0   16   17      4
    17  -2.43230  -0.49728   0.00000   0.49728    0.00000  90.00000   0.00829    16   17   18      4
    18  -2.43230   0.00000   0.00000   0.49728    0.00000  90.00000   0.00829    17   18   19      4
    19  -2.43230   0.49728   0.00000   0.49728    0.00000  90.00000   0.00829    18   19   20      4
    20  -2.43230   0.99456   0.00000   0.49728    0.00000  90.00000   0.00829    19   20    0      4
    21  -3.36800  -1.06944   0.00000   0.53472    0.00000  90.00000   0.00891     0   21   22      5
    22  -3.36800  -0.53472   0.00000   0.53472    0.00000  90.00000   0.00891    21   22   23      5
    23  -3.36800   0.00000   0.00000   0.53472    0.00000  90.00000   0.00891    22   23   24      5
    24  -3.36800   0.53472   0.00000   0.53472    0.00000  90.00000   0.00891    23   24   25      5
    25  -3.36800   1.06944   0.00000   0.53472    0.00000  90.00000   0.00891    24   25    0      5
    26  -4.37420  -1.23206   0.00000   0.41069    0.00000  90.00000   0.00958     0   26   27      6
    27  -4.37420  -0.82137   0.00000   0.41069    0.00000  90.00000   0.00958    26   27   28      6
    28  -4.37420  -0.41069   0.00000   0.41069    0.00000  90.00000   0.00958    27   28   29      6
    29  -4.37420   0.00000   0.00000   0.41069    0.00000  90.00000   0.00958    28   29   30      6
    30  -4.37420   0.41069   0.00000   0.41069    0.00000  90.00000   0.00958    29   30   31      6
    31  -4.37420   0.82137   0.00000   0.41069    0.00000  90.00000   0.00958    30   31   32      6
    32  -4.37420   1.23206   0.00000   0.41069    0.00000  90.00000   0.00958    31   32    0      6
    33  -5.45620  -1.32480   0.00000   0.44160    0.00000  90.00000   0.01030     0   33   34      7
    34  -5.45620  -0.88320   0.00000   0.44160    0.00000  90.00000   0.01030    33   34   35      7
    35  -5.45620  -0.44160   0.00000   0.44160    0.00000  90.00000   0.01030    34   35   36      7
    36  -5.45620   0.00000   0.00000   0.44160    0.00000  90.00000   0.01030    35   36   37      7
    37  -5.45620   0.44160   0.00000   0.44160    0.00000  90.00000   0.01030    36   37   38      7
    38  -5.45620   0.88320   0.00000   0.44160    0.00000  90.00000   0.01030    37   38   39      7
    39  -5.45620   1.32480   0.00000   0.44160    0.00000  90.00000   0.01030    38   39    0      7
    40  -6.61950  -1.42449   0.00000   0.47483    0.00000  90.00000   0.01108     0   40   41      8
    41  -6.61950  -0.94966   0.00000   0.47483    0.00000  90.00000   0.01108    40   41   42      8
    42  -6.61950  -0.47483   0.00000   0.47483    0.00000  90.00000   0.01108    41   42   43      8
    43  -6.61950   0.00000   0.00000   0.47483    0.00000  90.00000   0.01108    42   43   44      8
    44  -6.61950   0.47483   0.00000   0.47483    0.00000  90.00000   0.01108    43   44   45      8
    45  -6.61950   0.94966   0.00000   0.47483    0.00000  90.00000   0.01108    44   45   46      8
    46  -6.61950   1.42449   0.00000   0.47483    0.00000  90.00000   0.01108    45   46    0      8
    47  -7.87050  -1.53171   0.00000   0.51057    0.00000  90.00000   0.01191     0   47   48      9
    48  -7.87050  -1.02114   0.00000   0.51057    0.00000  90.00000   0.01191    47   48   49      9
    49  -7.87050  -0.51057   0.00000   0.51057    0.00000  90.00000   0.01191    48   49   50      9
    50  -7.87050   0.00000   0.00000   0.51057    0.00000  90.00000   0.01191    49   50   51      9
    51  -7.87050   0.51057   0.00000   0.51057    0.00000  90.00000   0.01191    50   51   52      9
    52  -7.87050   1.02114   0.00000   0.51057    0.00000  90.00000   0.01191    51   52   53      9
    53  -7.87050   1.53171   0.00000   0.51057    0.00000  90.00000   0.01191    52   53    0      9
    54  -9.21560  -1.64700   0.00000   0.54900    0.00000  90.00000   0.01281     0   54   55     10
    55  -9.21560  -1.09800   0.00000   0.54900    0.00000  90.00000   0.01281    54   55   56     10
    56  -9.21560  -0.54900   0.00000   0.54900    0.00000  90.00000   0.01281    55   56   57     10
    57  -9.21560   0.00000   0.00000   0.54900    0.00000  90.00000   0.01281    56   57   58     10
    58  -9.21560   0.54900   0.00000   0.54900    0.00000  90.00000   0.01281    57   58   59     10
    59  -9.21560   1.09800   0.00000   0.54900    0.00000  90.00000   0.01281    58   59   60     10
    60  -9.21560   1.64700   0.00000   0.54900    0.00000  90.00000   0.01281    59   60    0     10
    61 -10.66190  -1.83662   0.00000   0.45916    0.00000  90.00000   0.01377     0   61   62     11
    62 -10.66190  -1.37747   0.00000   0.45916    0.00000  90.00000   0.01377    61   62   63     11
    63 -10.66190  -0.91831   0.00000   0.45916    0.00000  90.00000   0.01377    62   63   64     11
    64 -10.66190  -0.45916   0.00000   0.45916    0.00000  90.00000   0.01377    63   64   65     11
    65 -10.66190   0.00000   0.00000   0.45916    0.00000  90.00000   0.01377    64   65   66     11
    66 -10.66190   0.45916   0.00000   0.45916    0.00000  90.00000   0.01377    65   66   67     11
    67 -10.66190   0.91831   0.00000   0.45916    0.00000  90.00000   0.01377    66   67   68     11
    68 -10.66190   1.37747   0.00000   0.45916    0.00000  90.00000   0.01377    67   68   69     11
    69 -10.66190   1.83662   0.00000   0.45916    0.00000  90.00000   0.01377    68   69    0     11
    70 -12.21710  -1.97484   0.00000   0.49371    0.00000  90.00000   0.01481     0   70   71     12
    71 -12.21710  -1.48113   0.00000   0.49371    0.00000  90.00000   0.01481    70   71   72     12
    72 -12.21710  -0.98742   0.00000   0.49371    0.00000  90.00000   0.01481    71   72   73     12
    73 -12.21710  -0.49371   0.00000   0.49371    0.00000  90.00000   0.01481    72   73   74     12
    74 -12.21710   0.00000   0.00000   0.49371    0.00000  90.00000   0.01481    73   74   75     12
    75 -12.21710   0.49371   0.00000   0.49371    0.00000  90.00000   0.01481    74   75   76     12
    76 -12.21710   0.98742   0.00000   0.49371    0.00000  90.00000   0.01481    75   76   77     12
    77 -12.21710   1.48113   0.00000   0.49371    0.00000  90.00000   0.01481    76   77   78     12
    78 -12.21710   1.97484   0.00000   0.49371    0.00000  90.00000   0.01481    77   78    0     12




 ***** INPUT LINE  1  FR   0    0    0    0  4.62900E+01  0.00000E+00  0.00000E+00  0.00000E+00  0.00000E+00  0.00000E+00
 ***** INPUT LINE  2  TL   1    3    2    3 -5.00000E+01  0.00000E+00  0.00000E+00  0.00000E+00  0.00000E+00  0.00000E+00
 ***** INPUT LINE  3  TL   2    3    3    3 -5.00000E+01  0.00000E+00  0.00000E+00  0.00000E+00  0.00000E+00  0.00000E+00
 ***** INPUT LINE  4  TL   3    3    4    3 -5.00000E+01  0.00000E+00  0.00000E+00  0.00000E+00  0.00000E+00  0.00000E+00
 ***** INPUT LINE  5  TL   4    3    5    3 -5.00000E+01  0.00000E+00  0.00000E+00  0.00000E+00  0.00000E+00  0.00000E+00
 ***** INPUT LINE  6  TL   5    3    6    4 -5.00000E+01  0.00000E+00  0.00000E+00  0.00000E+00  0.00000E+00  0.00000E+00
 ***** INPUT LINE  7  TL   6    4    7    4 -5.00000E+01  0.00000E+00  0.00000E+00  0.00000E+00  0.00000E+00  0.00000E+00
 ***** INPUT LINE  8  TL   7    4    8    4 -5.00000E+01  0.00000E+00  0.00000E+00  0.00000E+00  0.00000E+00  0.00000E+00
 ***** INPUT LINE  9  TL   8    4    9    4 -5.00000E+01  0.00000E+00  0.00000E+00  0.00000E+00  0.00000E+00  0.00000E+00
 ***** INPUT LINE 10  TL   9    4   10    4 -5.00000E+01  0.00000E+00  0.00000E+00  0.00000E+00  0.00000E+00  0.00000E+00
 ***** INPUT LINE 11  TL  10    4   11    5 -5.00000E+01  0.00000E+00  0.00000E+00  0.00000E+00  0.00000E+00  0.00000E+00
 ***** INPUT LINE 12  TL  11    5   12    5 -5.00000E+01  0.00000E+00  0.00000E+00  0.00000E+00  2.00000E-02  0.00000E+00
 ***** INPUT LINE 13  EX   0    1    3   10  1.00000E+00  0.00000E+00  0.00000E+00  0.00000E+00  0.00000E+00  0.00000E+00
 ***** INPUT LINE 14  RP   0   37    1 1110  9.00000E+01  0.00000E+00 -5.00000E+00  0.00000E+00  0.00000E+00  0.00000E+00




                                 - - - - - - FREQUENCY - - - - - -

                                    FREQUENCY= 4.6290E+01 MHZ
                                    WAVELENGTH= 6.4766E+00 METERS



[...]
    72  -1.40000  -2.42487  -0.05000   0.80000    0.00000  60.00000   0.01000    71   72   73      1
    73  -1.00000  -1.73205  -0.05000   0.80000    0.00000  60.00000   0.01000    72   73   74      1
    74  -0.60000  -1.03923  -0.05000   0.80000    0.00000  60.00000   0.01000    73   74   75      1
    75  -0.20000  -0.34641  -0.02500   0.80156    3.57633  60.00000   0.01000    74   75  -90      1
    76   5.80000 -10.04589  -0.05000   0.80000    0.00000 120.00000   0.01000     0   76   77      1
    77   5.40000  -9.35307  -0.05000   0.80000    0.00000 120.00000   0.01000    76   77   78      1
    78   5.00000  -8.66025  -0.05000   0.80000    0.00000 120.00000   0.01000    77   78   79      1
    79   4.60000  -7.96743  -0.05000   0.80000    0.00000 120.00000   0.01000    78   79   80      1
    80   4.20000  -7.27461  -0.05000   0.80000    0.00000 120.00000   0.01000    79   80   81      1
    81   3.80000  -6.58179  -0.05000   0.80000    0.00000 120.00000   0.01000    80   81   82      1
    82   3.40000  -5.88897  -0.05000   0.80000    0.00000 120.00000   0.01000    81   82   83      1
    83   3.00000  -5.19615  -0.05000   0.80000    0.00000 120.00000   0.01000    82   83   84      1
    84   2.60000  -4.50333  -0.05000   0.80000    0.00000 120.00000   0.01000    83   84   85      1
    85   2.20000  -3.81051  -0.05000   0.80000    0.00000 120.00000   0.01000    84   85   86      1
    86   1.80000  -3.11769  -0.05000   0.80000    0.00000 120.00000   0.01000    85   86   87      1
    87   1.40000  -2.42487  -0.05000   0.80000    0.00000 120.00000   0.01000    86   87   88      1
    88   1.00000  -1.73205  -0.05000   0.80000    0.00000 120.00000   0.01000    87   88   89      1
    89   0.60000  -1.03923  -0.05000   0.80000    0.00000 120.00000   0.01000    88   89   90      1
    90   0.20000  -0.34641  -0.02500   0.80156    3.57633 120.00000   0.01000    89   90   91      1
    91   0.00000   0.00000   0.75000   1.50000   90.00000   0.00000   0.01000    15   91   92      2
    92   0.00000   0.00000   2.25000   1.50000   90.00000   0.00000   0.01000    91   92   93      2
    93   0.00000   0.00000   3.75000   1.50000   90.00000   0.00000   0.01000    92   93   94      2
    94   0.00000   0.00000   5.25000   1.50000   90.00000   0.00000   0.01000    93   94   95      2
    95   0.00000   0.00000   6.75000   1.50000   90.00000   0.00000   0.01000    94   95   96      2
    96   0.00000   0.00000   8.25000   1.50000   90.00000   0.00000   0.01000    95   96   97      2
    97   0.00000   0.00000   9.75000   1.50000   90.00000   0.00000   0.01000    96   97   98      2
    98   0.00000   0.00000  11.25000   1.50000   90.00000   0.00000   0.01000    97   98   99      2
    99   0.00000   0.00000  12.75000   1.50000   90.00000   0.00000   0.01000    98   99  100      2
   100   0.00000   0.00000  14.25000   1.50000   90.00000   0.00000   0.01000    99  100    0      2


 N.G.F. - NUMBER OF NEW UNKNOWNS IS  16




 ***** INPUT LINE  1  EX   0    2    1    0  1.00000E+00  0.00000E+00  0.00000E+00  0.00000E+00  0.00000E+00  0.00000E+00
 ***** INPUT LINE  2  RP   0   19    2 1001  0.00000E+00  0.00000E+00  5.00000E+00  9.00000E+01  0.00000E+00  0.00000E+00




                                 - - - - - - FREQUENCY - - - - - -

                                    FREQUENCY= 5.0000E+00 MHZ
                                    WAVELENGTH= 5.9960E+01 METERS



                                  - - - ANTENNA ENVIRONMENT - - -

                                        FINITE GROUND.  SOMMERFELD SOLUTION
                                        RELATIVE DIELECTRIC CONST.= 10.000
                                        CONDUCTIVITY= 1.000E-02 MHOS/METER
                                        COMPLEX DIELECTRIC CONSTANT= 1.00000E+01-3.59510E+01



                               - - - STRUCTURE IMPEDANCE LOADING - - -

                                   THIS STRUCTURE IS NOT LOADED



                                - - - MATRIX TIMING - - -

                        FILL=    0.200 SEC.,  FACTOR=    0.000 SEC.



                                          - - - ANTENNA INPUT PARAMETERS - - -

   TAG   SEG.    VOLTAGE (VOLTS)         CURRENT (AMPS)         IMPEDANCE (OHMS)        ADMITTANCE (MHOS)      POWER
   NO.   NO.    REAL        IMAG.       REAL        IMAG.       REAL        IMAG.       REAL        IMAG.     (WATTS)
     2    91 1.00000E+00 0.00000E+00 1.42837E-02-7.78794E-03 5.39666E+01 2.94243E+01 1.42837E-02-7.78794E-03 7.14187E-03



                             - - - CURRENTS AND LOCATION - - -

                     LENGTHS NORMALIZED BY WAVELENGTH (OR 2.*PI/CABS(K))

  SEG.  TAG    COORD. OF SEG. CENTER     SEG.            - - - CURRENT (AMPS) - - -
  NO.   NO.     X        Y        Z      LENGTH     REAL        IMAG.       MAG.        PHASE
     1    1   1.1818   0.0000  -0.0051  0.08150   3.6070E-05 -1.1057E-04  1.1630E-04  -71.932
     2    1   1.1003   0.0000  -0.0051  0.08150   5.0385E-05 -2.7344E-04  2.7804E-04  -79.560
     3    1   1.0188   0.0000  -0.0051  0.08150   2.8482E-05 -4.0277E-04  4.0378E-04  -85.955
     4    1   0.9373   0.0000  -0.0051  0.08150  -6.5618E-06 -5.1468E-04  5.1472E-04  -90.730
     5    1   0.8558   0.0000  -0.0051  0.08150  -3.9173E-05 -6.2061E-04  6.2185E-04  -93.612
     6    1   0.7743   0.0000  -0.0051  0.08150  -5.6349E-05 -7.3117E-04  7.3334E-04  -94.407
     7    1   0.6928   0.0000  -0.0051  0.08150  -4.5564E-05 -8.5495E-04  8.5616E-04  -93.051
     8    1   0.6113   0.0000  -0.0051  0.08150   6.4464E-06 -9.9667E-04  9.9669E-04  -89.629
     9    1   0.5298   0.0000  -0.0051  0.08150   1.1406E-04 -1.1553E-03  1.1609E-03  -84.362
    10    1   0.4483   0.0000  -0.0051  0.08150   2.9212E-04 -1.3222E-03  1.3541E-03  -77.542
    11    1   0.3668   0.0000  -0.0051  0.08150   5.5366E-04 -1.4790E-03  1.5792E-03  -69.476
    12    1   0.2853   0.0000  -0.0051  0.08150   9.0575E-04 -1.5969E-03  1.8359E-03  -60.439
    13    1   0.2038   0.0000  -0.0051  0.08150   1.3422E-03 -1.6386E-03  2.1181E-03  -50.677
    14    1   0.1223   0.0000  -0.0051  0.08150   1.8332E-03 -1.5643E-03  2.4098E-03  -40.475
    15    1   0.0408   0.0000  -0.0025  0.08166   2.2798E-03 -1.3733E-03  2.6615E-03  -31.064
    16    1   0.5909   1.0235  -0.0051  0.08150   3.6070E-05 -1.1057E-04  1.1630E-04  -71.932
    17    1   0.5501   0.9529  -0.0051  0.08150   5.0385E-05 -2.7344E-04  2.7804E-04  -79.560
    18    1   0.5094   0.8823  -0.0051  0.08150   2.8482E-05 -4.0277E-04  4.0378E-04  -85.955
    19    1   0.4686   0.8117  -0.0051  0.08150  -6.5618E-06 -5.1468E-04  5.1472E-04  -90.730
    20    1   0.4279   0.7411  -0.0051  0.08150  -3.9173E-05 -6.2061E-04  6.2185E-04  -93.612
    21    1   0.3871   0.6705  -0.0051  0.08150  -5.6349E-05 -7.3117E-04  7.3334E-04  -94.407
    22    1   0.3464   0.6000  -0.0051  0.08150  -4.5564E-05 -8.5495E-04  8.5616E-04  -93.051
    23    1   0.3056   0.5294  -0.0051  0.08150   6.4464E-06 -9.9667E-04  9.9669E-04  -89.629
    24    1   0.2649   0.4588  -0.0051  0.08150   1.1406E-04 -1.1553E-03  1.1609E-03  -84.362
    25    1   0.2241   0.3882  -0.0051  0.08150   2.9212E-04 -1.3222E-03  1.3541E-03  -77.542
    26    1   0.1834   0.3176  -0.0051  0.08150   5.5366E-04 -1.4790E-03  1.5792E-03  -69.476
    27    1   0.1426   0.2470  -0.0051  0.08150   9.0575E-04 -1.5969E-03  1.8359E-03  -60.439
    28    1   0.1019   0.1765  -0.0051  0.08150   1.3422E-03 -1.6386E-03  2.1181E-03  -50.677
    29    1   0.0611   0.1059  -0.0051  0.08150   1.8332E-03 -1.5643E-03  2.4098E-03  -40.475
    30    1   0.0204   0.0353  -0.0025  0.08166   2.2798E-03 -1.3733E-03  2.6615E-03  -31.064
    31    1  -0.5909   1.0235  -0.0051  0.08150   3.6070E-05 -1.1057E-04  1.1630E-04  -71.932
    32    1  -0.5501   0.9529  -0.0051  0.08150   5.0385E-05 -2.7344E-04  2.7804E-04  -79.560
    33    1  -0.5094   0.8823  -0.0051  0.08150   2.8482E-05 -4.0277E-04  4.0378E-04  -85.955
    34    1  -0.4686   0.8117  -0.0051  0.08150  -6.5618E-06 -5.1468E-04  5.1472E-04  -90.730
    35    1  -0.4279   0.7411  -0.0051  0.08150  -3.9173E-05 -6.2061E-04  6.2185E-04  -93.612
    36    1  -0.3871   0.6705  -0.0051  0.08150  -5.6349E-05 -7.3117E-04  7.3334E-04  -94.407
    37    1  -0.3464   0.6000  -0.0051  0.08150  -4.5564E-05 -8.5495E-04  8.5616E-04  -93.051
    38    1  -0.3056   0.5294  -0.0051  0.08150   6.4464E-06 -9.9667E-04  9.9669E-04  -89.629
    39    1  -0.2649   0.4588  -0.0051  0.08150   1.1406E-04 -1.1553E-03  1.1609E-03  -84.362
    40    1  -0.2241   0.3882  -0.0051  0.08150   2.9212E-04 -1.3222E-03  1.3541E-03  -77.542
    41    1  -0.1834   0.3176  -0.0051  0.08150   5.5366E-04 -1.4790E-03  1.5792E-03  -69.476
    42    1  -0.1426   0.2470  -0.0051  0.08150   9.0575E-04 -1.5969E-03  1.8359E-03  -60.439
    43    1  -0.1019   0.1765  -0.0051  0.08150   1.3422E-03 -1.6386E-03  2.1181E-03  -50.677
    44    1  -0.0611   0.1059  -0.0051  0.08150   1.8332E-03 -1.5643E-03  2.4098E-03  -40.475
    45    1  -0.0204   0.0353  -0.0025  0.08166   2.2798E-03 -1.3733E-03  2.6615E-03  -31.064
    46    1  -1.1818   0.0000  -0.0051  0.08150   3.6070E-05 -1.1057E-04  1.1630E-04  -71.932
    47    1  -1.1003   0.0000  -0.0051  0.08150   5.0385E-05 -2.7344E-04  2.7804E-04  -79.560
    48    1  -1.0188   0.0000  -0.0051  0.08150   2.8482E-05 -4.0277E-04  4.0378E-04  -85.955
    49    1  -0.9373   0.0000  -0.0051  0.08150  -6.5618E-06 -5.1468E-04  5.1472E-04  -90.730
    50    1  -0.8558   0.0000  -0.0051  0.08150  -3.9173E-05 -6.2061E-04  6.2185E-04  -93.612
    51    1  -0.7743   0.0000  -0.0051  0.08150  -5.6349E-05 -7.3117E-04  7.3334E-04  -94.407
    52    1  -0.6928   0.0000  -0.0051  0.08150  -4.5564E-05 -8.5495E-04  8.5616E-04  -93.051
    53    1  -0.6113   0.0000  -0.0051  0.08150   6.4464E-06 -9.9667E-04  9.9669E-04  -89.629
    54    1  -0.5298   0.0000  -0.0051  0.08150   1.1406E-04 -1.1553E-03  1.1609E-03  -84.362
    55    1  -0.4483   0.0000  -0.0051  0.08150   2.9212E-04 -1.3222E-03  1.3541E-03  -77.542
    56    1  -0.3668   0.0000  -0.0051  0.08150   5.5366E-04 -1.4790E-03  1.5792E-03  -69.476
    57    1  -0.2853   0.0000  -0.0051  0.08150   9.0575E-04 -1.5969E-03  1.8359E-03  -60.439
    58    1  -0.2038   0.0000  -0.0051  0.08150   1.3422E-03 -1.6386E-03  2.1181E-03  -50.677
    59    1  -0.1223   0.0000  -0.0051  0.08150   1.8332E-03 -1.5643E-03  2.4098E-03  -40.475
    60    1  -0.0408   0.0000  -0.0025  0.08166   2.2798E-03 -1.3733E-03  2.6615E-03  -31.064
    61    1  -0.5909  -1.0235  -0.0051  0.08150   3.6070E-05 -1.1057E-04  1.1630E-04  -71.932
    62    1  -0.5501  -0.9529  -0.0051  0.08150   5.0385E-05 -2.7344E-04  2.7804E-04  -79.560
    63    1  -0.5094  -0.8823  -0.0051  0.08150   2.8482E-05 -4.0277E-04  4.0378E-04  -85.955
    64    1  -0.4686  -0.8117  -0.0051  0.08150  -6.5618E-06 -5.1468E-04  5.1472E-04  -90.730
    65    1  -0.4279  -0.7411  -0.0051  0.08150  -3.9173E-05 -6.2061E-04  6.2185E-04  -93.612
    66    1  -0.3871  -0.6705  -0.0051  0.08150  -5.6349E-05 -7.3117E-04  7.3334E-04  -94.407
    67    1  -0.3464  -0.6000  -0.0051  0.08150  -4.5564E-05 -8.5495E-04  8.5616E-04  -93.051
    68    1  -0.3056  -0.5294  -0.0051  0.08150   6.4464E-06 -9.9667E-04  9.9669E-04  -89.629
    69    1  -0.2649  -0.4588  -0.0051  0.08150   1.1406E-04 -1.1553E-03  1.1609E-03  -84.362
    70    1  -0.2241  -0.3882  -0.0051  0.08150   2.9212E-04 -1.3222E-03  1.3541E-03  -77.542
    71    1  -0.1834  -0.3176  -0.0051  0.08150   5.5366E-04 -1.4790E-03  1.5792E-03  -69.476
    72    1  -0.1426  -0.2470  -0.0051  0.08150   9.0575E-04 -1.5969E-03  1.8359E-03  -60.439
    73    1  -0.1019  -0.1765  -0.0051  0.08150   1.3422E-03 -1.6386E-03  2.1181E-03  -50.677
    74    1  -0.0611  -0.1059  -0.0051  0.08150   1.8332E-03 -1.5643E-03  2.4098E-03  -40.475
    75    1  -0.0204  -0.0353  -0.0025  0.08166   2.2798E-03 -1.3733E-03  2.6615E-03  -31.064
    76    1   0.5909  -1.0235  -0.0051  0.08150   3.6070E-05 -1.1057E-04  1.1630E-04  -71.932
    77    1   0.5501  -0.9529  -0.0051  0.08150   5.0385E-05 -2.7344E-04  2.7804E-04  -79.560
    78    1   0.5094  -0.8823  -0.0051  0.08150   2.8482E-05 -4.0277E-04  4.0378E-04  -85.955
    79    1   0.4686  -0.8117  -0.0051  0.08150  -6.5618E-06 -5.1468E-04  5.1472E-04  -90.730
    80    1   0.4279  -0.7411  -0.0051  0.08150  -3.9173E-05 -6.2061E-04  6.2185E-04  -93.612
    81    1   0.3871  -0.6705  -0.0051  0.08150  -5.6349E-05 -7.3117E-04  7.3334E-04  -94.407
    82    1   0.3464  -0.6000  -0.0051  0.08150  -4.5564E-05 -8.5495E-04  8.5616E-04  -93.051
    83    1   0.3056  -0.5294  -0.0051  0.08150   6.4464E-06 -9.9667E-04  9.9669E-04  -89.629
    84    1   0.2649  -0.4588  -0.0051  0.08150   1.1406E-04 -1.1553E-03  1.1609E-03  -84.362
    85    1   0.2241  -0.3882  -0.0051  0.08150   2.9212E-04 -1.3222E-03  1.3541E-03  -77.542
    86    1   0.1834  -0.3176  -0.0051  0.08150   5.5366E-04 -1.4790E-03  1.5792E-03  -69.476
    87    1   0.1426  -0.2470  -0.0051  0.08150   9.0575E-04 -1.5969E-03  1.8359E-03  -60.439
    88    1   0.1019  -0.1765  -0.0051  0.08150   1.3422E-03 -1.6386E-03  2.1181E-03  -50.677
    89    1   0.0611  -0.1059  -0.0051  0.08150   1.8332E-03 -1.5643E-03  2.4098E-03  -40.475
    90    1   0.0204  -0.0353  -0.0025  0.08166   2.2798E-03 -1.3733E-03  2.6615E-03  -31.064
    91    2   0.0000   0.0000   0.0125  0.02502   1.4284E-02 -7.7879E-03  1.6269E-02  -28.601
    92    2   0.0000   0.0000   0.0375  0.02502   1.3936E-02 -7.9292E-03  1.6034E-02  -29.639
    93    2   0.0000   0.0000   0.0625  0.02502   1.3265E-02 -7.8308E-03  1.5404E-02  -30.554
    94    2   0.0000   0.0000   0.0876  0.02502   1.2291E-02 -7.4687E-03  1.4382E-02  -31.286
    95    2   0.0000   0.0000   0.1126  0.02502   1.1033E-02 -6.8684E-03  1.2996E-02  -31.903
    96    2   0.0000   0.0000   0.1376  0.02502   9.5181E-03 -6.0496E-03  1.1278E-02  -32.440
    97    2   0.0000   0.0000   0.1626  0.02502   7.7742E-03 -5.0325E-03  9.2609E-03  -32.916
    98    2   0.0000   0.0000   0.1876  0.02502   5.8307E-03 -3.8371E-03  6.9800E-03  -33.348
    99    2   0.0000   0.0000   0.2126  0.02502   3.7093E-03 -2.4781E-03  4.4609E-03  -33.746
   100    2   0.0000   0.0000   0.2377  0.02502   1.3642E-03 -9.2411E-04  1.6478E-03  -34.113



                                        - - - POWER BUDGET - - -

                                           INPUT POWER   = 7.1419E-03 WATTS
                                           RADIATED POWER= 7.1419E-03 WATTS
                                           WIRE LOSS     = 0.0000E+00 WATTS
                                           EFFICIENCY    = 100.00 PERCENT



                                                - - - RADIATION PATTERNS - - -

  - - ANGLES - -          - POWER GAINS -        - - - POLARIZATION - - -    - - - E(THETA) - - -    - - - E(PHI) - - -
  THETA     PHI        VERT.   HOR.    TOTAL      AXIAL     TILT   SENSE     MAGNITUDE    PHASE      MAGNITUDE    PHASE 
 DEGREES  DEGREES       DB      DB      DB        RATIO     DEG.               VOLTS     DEGREES       VOLTS     DEGREES
    0.00     0.00    -999.99 -999.99 -999.99    0.00000     0.00            3.91752E-16   144.56    4.45295E-16    98.00
    5.00     0.00     -21.08 -999.99  -21.08    0.00000     0.00  LINEAR    5.77853E-02    60.79    4.44465E-16    98.71
   10.00     0.00     -15.05 -999.99  -15.05    0.00000     0.00  LINEAR    1.15668E-01    60.70    4.34147E-16    99.21
   15.00     0.00     -11.52 -999.99  -11.52    0.00000     0.00  LINEAR    1.73691E-01    60.56    4.33051E-16    98.89
   20.00     0.00      -9.01 -999.99   -9.01    0.00000     0.00  LINEAR    2.31799E-01    60.36    4.17203E-16    99.18
   25.00     0.00      -7.08 -999.99   -7.08    0.00000     0.00  LINEAR    2.89777E-01    60.11    4.06183E-16    99.34
   30.00     0.00      -5.50 -999.99   -5.50    0.00000     0.00  LINEAR    3.47215E-01    59.79    3.87371E-16    99.95
   35.00     0.00      -4.20 -999.99   -4.20    0.00000     0.00  LINEAR    4.03451E-01    59.41    3.65030E-16   100.03
   40.00     0.00      -3.11 -999.99   -3.11    0.00000     0.00  LINEAR    4.57534E-01    58.95    3.42908E-16   100.06
   45.00     0.00      -2.20 -999.99   -2.20    0.00000     0.00  LINEAR    5.08178E-01    58.41    3.17435E-16   101.25
   50.00     0.00      -1.45 -999.99   -1.45    0.00000     0.00  LINEAR    5.53702E-01    57.75    2.93546E-16   100.70
   55.00     0.00      -0.87 -999.99   -0.87    0.00000     0.00  LINEAR    5.91944E-01    56.96    2.62460E-16   101.31
   60.00     0.00      -0.47 -999.99   -0.47    0.00000     0.00  LINEAR    6.20100E-01    55.97    2.31888E-16   101.87
   65.00     0.00      -0.27 -999.99   -0.27    0.00000     0.00  LINEAR    6.34383E-01    54.69    1.97175E-16   102.00
   70.00     0.00      -0.34 -999.99   -0.34    0.00000     0.00  LINEAR    6.29280E-01    52.97    1.61442E-16   102.77
   75.00     0.00      -0.81 -999.99   -0.81    0.00000     0.00  LINEAR    5.95776E-01    50.54    1.21379E-16   103.09
   80.00     0.00      -2.05 -999.99   -2.05    0.00000     0.00  LINEAR    5.16732E-01    46.82    8.29155E-17   103.33
   85.00     0.00      -5.35 -999.99   -5.35    0.00000     0.00  LINEAR    3.53260E-01    40.49    4.20564E-17   104.58
   90.00     0.00    -139.09 -999.99 -139.09    0.00000     0.00  LINEAR    7.26376E-08    27.96    5.92833E-24   103.86
    0.00    90.00    -999.99 -999.99 -999.99    0.00000     0.00            4.45295E-16    98.00    3.91752E-16   -35.44
    5.00    90.00     -21.08 -999.99  -21.08    0.00000     0.00  LINEAR    5.77853E-02    60.79    3.89898E-16   -35.15
   10.00    90.00     -15.05 -999.99  -15.05    0.00000     0.00  LINEAR    1.15668E-01    60.70    4.09510E-16   -37.05
   15.00    90.00     -11.52 -999.99  -11.52    0.00000     0.00  LINEAR    1.73691E-01    60.56    6.07483E-16   -42.60
   20.00    90.00      -9.01 -999.99   -9.01    0.00000     0.00  LINEAR    2.31799E-01    60.36    1.29293E-15   -49.03
   25.00    90.00      -7.08 -999.99   -7.08    0.00000     0.00  LINEAR    2.89777E-01    60.11    2.95853E-15   -52.21
   30.00    90.00      -5.50 -999.99   -5.50    0.00000     0.00  LINEAR    3.47215E-01    59.79    6.14236E-15   -53.41
   35.00    90.00      -4.20 -999.99   -4.20    0.00000     0.00  LINEAR    4.03450E-01    59.41    1.12834E-14   -53.71
   40.00    90.00      -3.11 -999.99   -3.11    0.00000     0.00  LINEAR    4.57534E-01    58.95    1.85106E-14   -53.65
   45.00    90.00      -2.20 -999.99   -2.20    0.00000     0.00  LINEAR    5.08178E-01    58.41    2.74929E-14   -53.45
   50.00    90.00      -1.45 -999.99   -1.45    0.00000     0.00  LINEAR    5.53702E-01    57.75    3.73739E-14   -53.16
   55.00    90.00      -0.87 -999.99   -0.87    0.00000     0.00  LINEAR    5.91944E-01    56.96    4.68238E-14   -52.80
   60.00    90.00      -0.47 -999.99   -0.47    0.00000     0.00  LINEAR    6.20099E-01    55.96    5.42190E-14   -52.40
   65.00    90.00      -0.27 -999.99   -0.27    0.00000     0.00  LINEAR    6.34382E-01    54.69    5.79181E-14   -51.98
   70.00    90.00      -0.34 -999.99   -0.34    0.00000     0.00  LINEAR    6.29279E-01    52.97    5.66063E-14   -51.52
   75.00    90.00      -0.81 -999.99   -0.81    0.00000     0.00  LINEAR    5.95774E-01    50.54    4.95904E-14   -51.05
   80.00    90.00      -2.05 -999.99   -2.05    0.00000     0.00  LINEAR    5.16731E-01    46.82    3.70050E-14   -50.56
   85.00    90.00      -5.35 -999.99   -5.35    0.00000     0.00  LINEAR    3.53259E-01    40.49    1.98760E-14   -50.07
   90.00    90.00    -139.09 -999.99 -139.09    0.00000     0.00  LINEAR    7.26374E-08    27.96    2.85958E-21   -49.56


   AVERAGE POWER GAIN= 5.82039E-01       SOLID ANGLE USED IN AVERAGING=( 0.5000)*PI STERADIANS.

   POWER RADIATED ASSUMING RADIATION INTO 4*PI STERADIANS = 4.15684E-03 WATTS






 ***** INPUT LINE  3  EN   0    0    0    0  0.00000E+00  0.00000E+00  0.00000E+00  0.00000E+00  0.00000E+00  0.00000E+00

 RUN TIME =     1.400
